/*--------------------------------*- C++ -*----------------------------------*\
| =========                 |                                                 |
| \\      /  F ield         | OpenFOAM: The Open Source CFD Toolbox           |
|  \\    /   O peration     | Version:  v2006                                 |
|   \\  /    A nd           | Website:  www.openfoam.com                      |
|    \\/     M anipulation  |                                                 |
\*---------------------------------------------------------------------------*/
FoamFile
{
    version     2.0;
    format      ascii;
    class       dictionary;
    object      fvSolution;
}
// * * * * * * * * * * * * * * * * * * * * * * * * * * * * * * * * * * * * * //

solvers
{
    "(rho|rhoU|rhoE)"
    {
        solver          diagonal;
    }

    "(U|e|nuTilda|Ret|im|omega|epsilon|R|k)"
    {
      solver          smoothSolver;
      smoother        symGaussSeidel;
      tolerance       1e-6;
      relTol          0.01;
    }
}



LUSGS {
  internalIterations 50;
  localTimestepping true;
  tolerance 1e-5;
  relTol    1e-3;
}



fieldBounds
{
    rho 0.01 10;
    p   100 1e6;
    T   10 1000;
}

relaxationFactors
{
    fields
    {
    }
    equations
    {
        k               0.5;
        omega           0.5;
        yWall           0.7;   
    }
}
