/*--------------------------------*- C++ -*----------------------------------*\
  =========                 |
  \\      /  F ield         | OpenFOAM: The Open Source CFD Toolbox
   \\    /   O peration     | Website:  https://openfoam.org
    \\  /    A nd           | Version:  6
     \\/     M anipulation  |
\*---------------------------------------------------------------------------*/
FoamFile
{
    version     2.0;
    format      ascii;
    class       volVectorField;
    location    "constant";
    object      C;
}
// * * * * * * * * * * * * * * * * * * * * * * * * * * * * * * * * * * * * * //

dimensions      [0 1 0 0 0 0 0];

internalField   nonuniform List<vector> 
97664
(
(0.273506 0.0264372 -0.003)
(0.270519 0.0264373 -0.003)
(0.267535 0.0264373 -0.003)
(0.264559 0.0264374 -0.003)
(0.261592 0.0264375 -0.003)
(0.258638 0.0264377 -0.003)
(0.255697 0.0264378 -0.003)
(0.252774 0.026438 -0.003)
(0.249871 0.0264382 -0.003)
(0.246988 0.0264383 -0.003)
(0.24413 0.0264385 -0.003)
(0.241297 0.0264387 -0.003)
(0.238491 0.0264389 -0.003)
(0.235715 0.026439 -0.003)
(0.23297 0.0264392 -0.003)
(0.230256 0.0264393 -0.003)
(0.227577 0.0264394 -0.003)
(0.224931 0.0264394 -0.003)
(0.222322 0.0264394 -0.003)
(0.219749 0.0264394 -0.003)
(0.217213 0.0264394 -0.003)
(0.214715 0.0264392 -0.003)
(0.212256 0.0264391 -0.003)
(0.209835 0.0264389 -0.003)
(0.207454 0.0264386 -0.003)
(0.205111 0.0264382 -0.003)
(0.202808 0.0264378 -0.003)
(0.200545 0.0264373 -0.003)
(0.198321 0.0264368 -0.003)
(0.196136 0.0264362 -0.003)
(0.19399 0.0264355 -0.003)
(0.191883 0.0264347 -0.003)
(0.189813 0.0264339 -0.003)
(0.187782 0.026433 -0.003)
(0.185788 0.026432 -0.003)
(0.183832 0.026431 -0.003)
(0.181911 0.0264298 -0.003)
(0.180026 0.0264287 -0.003)
(0.178177 0.0264274 -0.003)
(0.176362 0.0264261 -0.003)
(0.174581 0.0264247 -0.003)
(0.172833 0.0264232 -0.003)
(0.171118 0.0264217 -0.003)
(0.169435 0.0264201 -0.003)
(0.167783 0.0264184 -0.003)
(0.166161 0.0264167 -0.003)
(0.164569 0.0264149 -0.003)
(0.163007 0.0264131 -0.003)
(0.161473 0.0264112 -0.003)
(0.159966 0.0264093 -0.003)
(0.158487 0.0264074 -0.003)
(0.157034 0.0264054 -0.003)
(0.155606 0.0264033 -0.003)
(0.154204 0.0264012 -0.003)
(0.152826 0.0263991 -0.003)
(0.151472 0.026397 -0.003)
(0.150141 0.0263948 -0.003)
(0.148833 0.0263927 -0.003)
(0.147546 0.0263905 -0.003)
(0.146281 0.0263883 -0.003)
(0.145037 0.026386 -0.003)
(0.143813 0.0263838 -0.003)
(0.142609 0.0263816 -0.003)
(0.141424 0.0263794 -0.003)
(0.140258 0.0263771 -0.003)
(0.13911 0.0263749 -0.003)
(0.137979 0.0263727 -0.003)
(0.136866 0.0263705 -0.003)
(0.13577 0.0263684 -0.003)
(0.13469 0.0263662 -0.003)
(0.133626 0.0263641 -0.003)
(0.132577 0.0263621 -0.003)
(0.131544 0.02636 -0.003)
(0.130525 0.026358 -0.003)
(0.129521 0.0263561 -0.003)
(0.12853 0.0263542 -0.003)
(0.127553 0.0263524 -0.003)
(0.12659 0.0263506 -0.003)
(0.125639 0.0263489 -0.003)
(0.124701 0.0263472 -0.003)
(0.123775 0.0263456 -0.003)
(0.122862 0.0263441 -0.003)
(0.121959 0.0263427 -0.003)
(0.121069 0.0263414 -0.003)
(0.120189 0.0263401 -0.003)
(0.11932 0.026339 -0.003)
(0.118462 0.0263379 -0.003)
(0.117614 0.026337 -0.003)
(0.116776 0.0263361 -0.003)
(0.115948 0.0263354 -0.003)
(0.115129 0.0263348 -0.003)
(0.11432 0.0263343 -0.003)
(0.11352 0.0263339 -0.003)
(0.112728 0.0263336 -0.003)
(0.111946 0.0263335 -0.003)
(0.111172 0.0263335 -0.003)
(0.110406 0.0263336 -0.003)
(0.109648 0.0263339 -0.003)
(0.108898 0.0263343 -0.003)
(0.108156 0.0263348 -0.003)
(0.107422 0.0263355 -0.003)
(0.106694 0.0263364 -0.003)
(0.105974 0.0263374 -0.003)
(0.105261 0.0263386 -0.003)
(0.104555 0.0263399 -0.003)
(0.103855 0.0263414 -0.003)
(0.103162 0.0263431 -0.003)
(0.102475 0.0263449 -0.003)
(0.101795 0.026347 -0.003)
(0.10112 0.0263491 -0.003)
(0.100452 0.0263515 -0.003)
(0.0997892 0.026354 -0.003)
(0.0991322 0.0263567 -0.003)
(0.0984807 0.0263596 -0.003)
(0.0978345 0.0263627 -0.003)
(0.0971937 0.026366 -0.003)
(0.0965579 0.0263694 -0.003)
(0.0959272 0.026373 -0.003)
(0.0953014 0.0263768 -0.003)
(0.0946804 0.0263808 -0.003)
(0.094064 0.026385 -0.003)
(0.0934521 0.0263894 -0.003)
(0.0928447 0.0263939 -0.003)
(0.0922416 0.0263986 -0.003)
(0.0916426 0.0264035 -0.003)
(0.0910478 0.0264086 -0.003)
(0.090457 0.0264139 -0.003)
(0.0898701 0.0264193 -0.003)
(0.0892869 0.0264249 -0.003)
(0.0887075 0.0264307 -0.003)
(0.0881316 0.0264366 -0.003)
(0.0875592 0.0264427 -0.003)
(0.0869903 0.026449 -0.003)
(0.0864246 0.0264554 -0.003)
(0.0858621 0.0264619 -0.003)
(0.0853027 0.0264687 -0.003)
(0.0847464 0.0264755 -0.003)
(0.0841929 0.0264825 -0.003)
(0.0836424 0.0264896 -0.003)
(0.0830945 0.0264968 -0.003)
(0.0825494 0.0265042 -0.003)
(0.0820068 0.0265116 -0.003)
(0.0814667 0.0265191 -0.003)
(0.0809291 0.0265268 -0.003)
(0.0803937 0.0265345 -0.003)
(0.0798607 0.0265422 -0.003)
(0.0793298 0.02655 -0.003)
(0.0788009 0.0265579 -0.003)
(0.0782741 0.0265658 -0.003)
(0.0777493 0.0265738 -0.003)
(0.0772263 0.0265817 -0.003)
(0.0767051 0.0265896 -0.003)
(0.0761856 0.0265975 -0.003)
(0.0756677 0.0266054 -0.003)
(0.0751514 0.0266132 -0.003)
(0.0746366 0.026621 -0.003)
(0.0741232 0.0266286 -0.003)
(0.0736112 0.0266362 -0.003)
(0.0731005 0.0266437 -0.003)
(0.072591 0.026651 -0.003)
(0.0720827 0.0266581 -0.003)
(0.0715754 0.0266651 -0.003)
(0.0710692 0.0266719 -0.003)
(0.070564 0.0266784 -0.003)
(0.0700596 0.0266847 -0.003)
(0.0695561 0.0266907 -0.003)
(0.0690534 0.0266965 -0.003)
(0.0685514 0.0267019 -0.003)
(0.0680501 0.0267069 -0.003)
(0.0675494 0.0267116 -0.003)
(0.0670493 0.0267158 -0.003)
(0.0665497 0.0267196 -0.003)
(0.0660505 0.026723 -0.003)
(0.0655518 0.0267258 -0.003)
(0.0650534 0.0267282 -0.003)
(0.0645553 0.0267299 -0.003)
(0.0640575 0.026731 -0.003)
(0.0635599 0.0267316 -0.003)
(0.0630624 0.0267314 -0.003)
(0.0625651 0.0267305 -0.003)
(0.0620679 0.0267289 -0.003)
(0.0615707 0.0267265 -0.003)
(0.0610736 0.0267233 -0.003)
(0.0605763 0.0267192 -0.003)
(0.0600791 0.0267141 -0.003)
(0.0595817 0.0267082 -0.003)
(0.0590841 0.0267012 -0.003)
(0.0585864 0.0266932 -0.003)
(0.0580884 0.0266841 -0.003)
(0.0575902 0.0266739 -0.003)
(0.0570918 0.0266626 -0.003)
(0.056593 0.02665 -0.003)
(0.0560938 0.0266361 -0.003)
(0.0555942 0.026621 -0.003)
(0.0550942 0.0266044 -0.003)
(0.0545938 0.0265865 -0.003)
(0.0540928 0.0265671 -0.003)
(0.0535913 0.0265462 -0.003)
(0.0530892 0.0265238 -0.003)
(0.0525865 0.0264998 -0.003)
(0.052083 0.0264741 -0.003)
(0.0515788 0.0264468 -0.003)
(0.0510737 0.0264177 -0.003)
(0.0505677 0.0263868 -0.003)
(0.0500606 0.026354 -0.003)
(0.0495524 0.0263193 -0.003)
(0.0490429 0.0262827 -0.003)
(0.0485318 0.026244 -0.003)
(0.0480191 0.0262032 -0.003)
(0.0475043 0.0261603 -0.003)
(0.0469871 0.026115 -0.003)
(0.0464671 0.0260674 -0.003)
(0.0459437 0.0260173 -0.003)
(0.045416 0.0259645 -0.003)
(0.044883 0.025909 -0.003)
(0.0443431 0.0258505 -0.003)
(0.0437939 0.0257891 -0.003)
(0.0432318 0.0257249 -0.003)
(0.042651 0.0256603 -0.003)
(0.0420292 0.0256059 -0.003)
(0.273506 0.026781 -0.003)
(0.270519 0.026781 -0.003)
(0.267535 0.0267811 -0.003)
(0.264559 0.0267812 -0.003)
(0.261592 0.0267813 -0.003)
(0.258638 0.0267814 -0.003)
(0.255697 0.0267816 -0.003)
(0.252774 0.0267817 -0.003)
(0.249871 0.0267819 -0.003)
(0.246988 0.0267821 -0.003)
(0.24413 0.0267823 -0.003)
(0.241297 0.0267825 -0.003)
(0.238491 0.0267826 -0.003)
(0.235715 0.0267828 -0.003)
(0.23297 0.0267829 -0.003)
(0.230256 0.026783 -0.003)
(0.227577 0.0267831 -0.003)
(0.224931 0.0267832 -0.003)
(0.222322 0.0267832 -0.003)
(0.219749 0.0267832 -0.003)
(0.217213 0.0267831 -0.003)
(0.214715 0.026783 -0.003)
(0.212256 0.0267828 -0.003)
(0.209835 0.0267826 -0.003)
(0.207454 0.0267823 -0.003)
(0.205111 0.026782 -0.003)
(0.202808 0.0267816 -0.003)
(0.200545 0.0267811 -0.003)
(0.198321 0.0267805 -0.003)
(0.196136 0.0267799 -0.003)
(0.19399 0.0267792 -0.003)
(0.191883 0.0267785 -0.003)
(0.189813 0.0267776 -0.003)
(0.187782 0.0267767 -0.003)
(0.185788 0.0267758 -0.003)
(0.183832 0.0267747 -0.003)
(0.181911 0.0267736 -0.003)
(0.180026 0.0267724 -0.003)
(0.178177 0.0267711 -0.003)
(0.176362 0.0267698 -0.003)
(0.174581 0.0267684 -0.003)
(0.172833 0.0267669 -0.003)
(0.171118 0.0267654 -0.003)
(0.169435 0.0267638 -0.003)
(0.167783 0.0267622 -0.003)
(0.166161 0.0267605 -0.003)
(0.16457 0.0267587 -0.003)
(0.163007 0.0267569 -0.003)
(0.161473 0.026755 -0.003)
(0.159966 0.0267531 -0.003)
(0.158487 0.0267511 -0.003)
(0.157034 0.0267491 -0.003)
(0.155606 0.0267471 -0.003)
(0.154204 0.026745 -0.003)
(0.152826 0.0267429 -0.003)
(0.151472 0.0267408 -0.003)
(0.150141 0.0267386 -0.003)
(0.148833 0.0267364 -0.003)
(0.147546 0.0267342 -0.003)
(0.146281 0.026732 -0.003)
(0.145037 0.0267298 -0.003)
(0.143813 0.0267275 -0.003)
(0.142609 0.0267253 -0.003)
(0.141424 0.0267231 -0.003)
(0.140258 0.0267209 -0.003)
(0.13911 0.0267187 -0.003)
(0.137979 0.0267164 -0.003)
(0.136866 0.0267143 -0.003)
(0.13577 0.0267121 -0.003)
(0.13469 0.02671 -0.003)
(0.133626 0.0267079 -0.003)
(0.132577 0.0267058 -0.003)
(0.131544 0.0267038 -0.003)
(0.130525 0.0267018 -0.003)
(0.129521 0.0266998 -0.003)
(0.12853 0.0266979 -0.003)
(0.127553 0.0266961 -0.003)
(0.12659 0.0266943 -0.003)
(0.125639 0.0266926 -0.003)
(0.124701 0.0266909 -0.003)
(0.123775 0.0266893 -0.003)
(0.122862 0.0266878 -0.003)
(0.121959 0.0266864 -0.003)
(0.121069 0.0266851 -0.003)
(0.120189 0.0266838 -0.003)
(0.11932 0.0266827 -0.003)
(0.118462 0.0266816 -0.003)
(0.117614 0.0266806 -0.003)
(0.116776 0.0266798 -0.003)
(0.115948 0.026679 -0.003)
(0.115129 0.0266784 -0.003)
(0.11432 0.0266779 -0.003)
(0.11352 0.0266775 -0.003)
(0.112729 0.0266772 -0.003)
(0.111946 0.026677 -0.003)
(0.111172 0.026677 -0.003)
(0.110406 0.0266771 -0.003)
(0.109648 0.0266774 -0.003)
(0.108898 0.0266778 -0.003)
(0.108156 0.0266783 -0.003)
(0.107422 0.026679 -0.003)
(0.106694 0.0266799 -0.003)
(0.105974 0.0266809 -0.003)
(0.105261 0.026682 -0.003)
(0.104555 0.0266833 -0.003)
(0.103855 0.0266848 -0.003)
(0.103162 0.0266864 -0.003)
(0.102475 0.0266883 -0.003)
(0.101795 0.0266902 -0.003)
(0.10112 0.0266924 -0.003)
(0.100452 0.0266947 -0.003)
(0.0997892 0.0266972 -0.003)
(0.0991321 0.0266999 -0.003)
(0.0984806 0.0267028 -0.003)
(0.0978345 0.0267058 -0.003)
(0.0971936 0.026709 -0.003)
(0.0965578 0.0267124 -0.003)
(0.0959271 0.026716 -0.003)
(0.0953012 0.0267198 -0.003)
(0.0946802 0.0267237 -0.003)
(0.0940637 0.0267278 -0.003)
(0.0934518 0.0267321 -0.003)
(0.0928444 0.0267366 -0.003)
(0.0922412 0.0267413 -0.003)
(0.0916423 0.0267462 -0.003)
(0.0910474 0.0267512 -0.003)
(0.0904566 0.0267564 -0.003)
(0.0898696 0.0267618 -0.003)
(0.0892864 0.0267673 -0.003)
(0.0887069 0.026773 -0.003)
(0.088131 0.0267789 -0.003)
(0.0875586 0.026785 -0.003)
(0.0869895 0.0267912 -0.003)
(0.0864238 0.0267975 -0.003)
(0.0858612 0.026804 -0.003)
(0.0853018 0.0268107 -0.003)
(0.0847454 0.0268175 -0.003)
(0.0841919 0.0268244 -0.003)
(0.0836412 0.0268314 -0.003)
(0.0830933 0.0268386 -0.003)
(0.0825481 0.0268459 -0.003)
(0.0820054 0.0268533 -0.003)
(0.0814652 0.0268607 -0.003)
(0.0809275 0.0268683 -0.003)
(0.080392 0.026876 -0.003)
(0.0798589 0.0268837 -0.003)
(0.0793278 0.0268914 -0.003)
(0.0787989 0.0268993 -0.003)
(0.078272 0.0269071 -0.003)
(0.077747 0.026915 -0.003)
(0.0772238 0.0269229 -0.003)
(0.0767025 0.0269308 -0.003)
(0.0761828 0.0269387 -0.003)
(0.0756648 0.0269466 -0.003)
(0.0751483 0.0269544 -0.003)
(0.0746334 0.0269621 -0.003)
(0.0741198 0.0269698 -0.003)
(0.0736076 0.0269774 -0.003)
(0.0730967 0.0269849 -0.003)
(0.072587 0.0269922 -0.003)
(0.0720784 0.0269994 -0.003)
(0.0715709 0.0270065 -0.003)
(0.0710644 0.0270133 -0.003)
(0.0705589 0.02702 -0.003)
(0.0700543 0.0270264 -0.003)
(0.0695505 0.0270325 -0.003)
(0.0690475 0.0270384 -0.003)
(0.0685453 0.027044 -0.003)
(0.0680436 0.0270492 -0.003)
(0.0675426 0.0270541 -0.003)
(0.0670421 0.0270586 -0.003)
(0.0665421 0.0270627 -0.003)
(0.0660425 0.0270664 -0.003)
(0.0655434 0.0270695 -0.003)
(0.0650446 0.0270722 -0.003)
(0.064546 0.0270744 -0.003)
(0.0640477 0.027076 -0.003)
(0.0635496 0.027077 -0.003)
(0.0630516 0.0270774 -0.003)
(0.0625538 0.0270771 -0.003)
(0.062056 0.0270761 -0.003)
(0.0615582 0.0270744 -0.003)
(0.0610604 0.0270719 -0.003)
(0.0605625 0.0270686 -0.003)
(0.0600645 0.0270644 -0.003)
(0.0595664 0.0270594 -0.003)
(0.0590681 0.0270535 -0.003)
(0.0585696 0.0270466 -0.003)
(0.0580708 0.0270387 -0.003)
(0.0575718 0.0270297 -0.003)
(0.0570724 0.0270197 -0.003)
(0.0565726 0.0270085 -0.003)
(0.0560725 0.0269962 -0.003)
(0.0555719 0.0269827 -0.003)
(0.0550709 0.0269679 -0.003)
(0.0545693 0.0269519 -0.003)
(0.0540672 0.0269345 -0.003)
(0.0535646 0.0269158 -0.003)
(0.0530612 0.0268956 -0.003)
(0.0525572 0.026874 -0.003)
(0.0520525 0.026851 -0.003)
(0.0515469 0.0268264 -0.003)
(0.0510405 0.0268002 -0.003)
(0.0505331 0.0267724 -0.003)
(0.0500246 0.026743 -0.003)
(0.049515 0.0267119 -0.003)
(0.049004 0.0266791 -0.003)
(0.0484915 0.0266446 -0.003)
(0.0479774 0.0266082 -0.003)
(0.0474612 0.02657 -0.003)
(0.0469428 0.02653 -0.003)
(0.0464217 0.0264881 -0.003)
(0.0458975 0.0264442 -0.003)
(0.0453693 0.0263985 -0.003)
(0.0448365 0.0263511 -0.003)
(0.0442978 0.0263022 -0.003)
(0.0437519 0.0262529 -0.003)
(0.0431972 0.0262055 -0.003)
(0.042632 0.0261671 -0.003)
(0.0420544 0.026161 -0.003)
(0.273506 0.0271247 -0.003)
(0.270519 0.0271248 -0.003)
(0.267536 0.0271248 -0.003)
(0.264559 0.0271249 -0.003)
(0.261592 0.027125 -0.003)
(0.258638 0.0271252 -0.003)
(0.255698 0.0271253 -0.003)
(0.252774 0.0271255 -0.003)
(0.249871 0.0271257 -0.003)
(0.246988 0.0271258 -0.003)
(0.24413 0.027126 -0.003)
(0.241297 0.0271262 -0.003)
(0.238492 0.0271264 -0.003)
(0.235715 0.0271265 -0.003)
(0.23297 0.0271267 -0.003)
(0.230257 0.0271268 -0.003)
(0.227577 0.0271269 -0.003)
(0.224932 0.0271269 -0.003)
(0.222322 0.0271269 -0.003)
(0.219749 0.0271269 -0.003)
(0.217213 0.0271269 -0.003)
(0.214715 0.0271267 -0.003)
(0.212256 0.0271266 -0.003)
(0.209835 0.0271264 -0.003)
(0.207454 0.0271261 -0.003)
(0.205112 0.0271257 -0.003)
(0.202809 0.0271253 -0.003)
(0.200545 0.0271248 -0.003)
(0.198321 0.0271243 -0.003)
(0.196136 0.0271237 -0.003)
(0.19399 0.027123 -0.003)
(0.191883 0.0271222 -0.003)
(0.189814 0.0271214 -0.003)
(0.187783 0.0271205 -0.003)
(0.185789 0.0271195 -0.003)
(0.183832 0.0271185 -0.003)
(0.181912 0.0271173 -0.003)
(0.180027 0.0271162 -0.003)
(0.178178 0.0271149 -0.003)
(0.176363 0.0271136 -0.003)
(0.174582 0.0271122 -0.003)
(0.172834 0.0271107 -0.003)
(0.171119 0.0271092 -0.003)
(0.169435 0.0271076 -0.003)
(0.167783 0.0271059 -0.003)
(0.166162 0.0271042 -0.003)
(0.16457 0.0271024 -0.003)
(0.163008 0.0271006 -0.003)
(0.161473 0.0270987 -0.003)
(0.159967 0.0270968 -0.003)
(0.158487 0.0270949 -0.003)
(0.157034 0.0270929 -0.003)
(0.155607 0.0270908 -0.003)
(0.154205 0.0270887 -0.003)
(0.152827 0.0270866 -0.003)
(0.151473 0.0270845 -0.003)
(0.150142 0.0270823 -0.003)
(0.148834 0.0270802 -0.003)
(0.147547 0.027078 -0.003)
(0.146282 0.0270757 -0.003)
(0.145038 0.0270735 -0.003)
(0.143814 0.0270713 -0.003)
(0.14261 0.0270691 -0.003)
(0.141425 0.0270668 -0.003)
(0.140258 0.0270646 -0.003)
(0.13911 0.0270624 -0.003)
(0.13798 0.0270602 -0.003)
(0.136867 0.027058 -0.003)
(0.135771 0.0270558 -0.003)
(0.134691 0.0270537 -0.003)
(0.133627 0.0270516 -0.003)
(0.132578 0.0270495 -0.003)
(0.131545 0.0270475 -0.003)
(0.130526 0.0270455 -0.003)
(0.129521 0.0270435 -0.003)
(0.128531 0.0270416 -0.003)
(0.127554 0.0270398 -0.003)
(0.126591 0.027038 -0.003)
(0.12564 0.0270363 -0.003)
(0.124702 0.0270346 -0.003)
(0.123776 0.027033 -0.003)
(0.122862 0.0270315 -0.003)
(0.12196 0.0270301 -0.003)
(0.12107 0.0270287 -0.003)
(0.12019 0.0270275 -0.003)
(0.119321 0.0270263 -0.003)
(0.118463 0.0270253 -0.003)
(0.117615 0.0270243 -0.003)
(0.116777 0.0270234 -0.003)
(0.115949 0.0270227 -0.003)
(0.11513 0.027022 -0.003)
(0.114321 0.0270215 -0.003)
(0.113521 0.0270211 -0.003)
(0.112729 0.0270208 -0.003)
(0.111947 0.0270206 -0.003)
(0.111173 0.0270206 -0.003)
(0.110407 0.0270207 -0.003)
(0.109649 0.0270209 -0.003)
(0.108899 0.0270213 -0.003)
(0.108157 0.0270218 -0.003)
(0.107422 0.0270225 -0.003)
(0.106695 0.0270233 -0.003)
(0.105975 0.0270243 -0.003)
(0.105262 0.0270254 -0.003)
(0.104555 0.0270267 -0.003)
(0.103856 0.0270282 -0.003)
(0.103163 0.0270298 -0.003)
(0.102476 0.0270316 -0.003)
(0.101795 0.0270335 -0.003)
(0.101121 0.0270357 -0.003)
(0.100452 0.0270379 -0.003)
(0.0997897 0.0270404 -0.003)
(0.0991326 0.0270431 -0.003)
(0.0984811 0.0270459 -0.003)
(0.0978349 0.0270489 -0.003)
(0.097194 0.0270521 -0.003)
(0.0965582 0.0270554 -0.003)
(0.0959275 0.027059 -0.003)
(0.0953016 0.0270627 -0.003)
(0.0946805 0.0270666 -0.003)
(0.094064 0.0270707 -0.003)
(0.0934521 0.0270749 -0.003)
(0.0928446 0.0270794 -0.003)
(0.0922414 0.027084 -0.003)
(0.0916424 0.0270888 -0.003)
(0.0910475 0.0270938 -0.003)
(0.0904566 0.0270989 -0.003)
(0.0898696 0.0271042 -0.003)
(0.0892864 0.0271097 -0.003)
(0.0887068 0.0271154 -0.003)
(0.0881309 0.0271212 -0.003)
(0.0875584 0.0271272 -0.003)
(0.0869893 0.0271333 -0.003)
(0.0864235 0.0271396 -0.003)
(0.0858609 0.0271461 -0.003)
(0.0853013 0.0271526 -0.003)
(0.0847449 0.0271594 -0.003)
(0.0841913 0.0271662 -0.003)
(0.0836406 0.0271732 -0.003)
(0.0830926 0.0271803 -0.003)
(0.0825472 0.0271875 -0.003)
(0.0820045 0.0271948 -0.003)
(0.0814642 0.0272022 -0.003)
(0.0809264 0.0272098 -0.003)
(0.0803908 0.0272173 -0.003)
(0.0798575 0.027225 -0.003)
(0.0793264 0.0272327 -0.003)
(0.0787974 0.0272405 -0.003)
(0.0782703 0.0272483 -0.003)
(0.0777452 0.0272561 -0.003)
(0.0772219 0.027264 -0.003)
(0.0767004 0.0272719 -0.003)
(0.0761806 0.0272797 -0.003)
(0.0756624 0.0272875 -0.003)
(0.0751458 0.0272953 -0.003)
(0.0746307 0.0273031 -0.003)
(0.074117 0.0273108 -0.003)
(0.0736046 0.0273184 -0.003)
(0.0730934 0.0273259 -0.003)
(0.0725835 0.0273332 -0.003)
(0.0720748 0.0273405 -0.003)
(0.0715671 0.0273476 -0.003)
(0.0710604 0.0273545 -0.003)
(0.0705546 0.0273612 -0.003)
(0.0700498 0.0273677 -0.003)
(0.0695457 0.0273739 -0.003)
(0.0690425 0.02738 -0.003)
(0.0685399 0.0273857 -0.003)
(0.068038 0.0273911 -0.003)
(0.0675366 0.0273962 -0.003)
(0.0670358 0.0274009 -0.003)
(0.0665355 0.0274052 -0.003)
(0.0660356 0.0274092 -0.003)
(0.065536 0.0274127 -0.003)
(0.0650368 0.0274157 -0.003)
(0.0645379 0.0274182 -0.003)
(0.0640391 0.0274203 -0.003)
(0.0635406 0.0274217 -0.003)
(0.0630422 0.0274226 -0.003)
(0.0625438 0.0274229 -0.003)
(0.0620455 0.0274225 -0.003)
(0.0615472 0.0274214 -0.003)
(0.0610489 0.0274196 -0.003)
(0.0605504 0.0274171 -0.003)
(0.0600518 0.0274137 -0.003)
(0.0595531 0.0274096 -0.003)
(0.0590542 0.0274046 -0.003)
(0.058555 0.0273987 -0.003)
(0.0580555 0.0273919 -0.003)
(0.0575557 0.0273842 -0.003)
(0.0570556 0.0273754 -0.003)
(0.0565551 0.0273656 -0.003)
(0.0560541 0.0273547 -0.003)
(0.0555527 0.0273428 -0.003)
(0.0550508 0.0273297 -0.003)
(0.0545484 0.0273154 -0.003)
(0.0540454 0.0272999 -0.003)
(0.0535418 0.0272832 -0.003)
(0.0530376 0.0272652 -0.003)
(0.0525326 0.0272459 -0.003)
(0.0520269 0.0272252 -0.003)
(0.0515204 0.0272032 -0.003)
(0.051013 0.0271798 -0.003)
(0.0505047 0.0271549 -0.003)
(0.0499953 0.0271286 -0.003)
(0.0494849 0.0271009 -0.003)
(0.0489731 0.0270716 -0.003)
(0.04846 0.0270408 -0.003)
(0.0479453 0.0270086 -0.003)
(0.0474289 0.0269748 -0.003)
(0.0469105 0.0269395 -0.003)
(0.0463898 0.0269028 -0.003)
(0.0458665 0.0268648 -0.003)
(0.04534 0.0268257 -0.003)
(0.0448101 0.0267859 -0.003)
(0.0442761 0.0267463 -0.003)
(0.0437375 0.0267087 -0.003)
(0.0431941 0.0266772 -0.003)
(0.0426458 0.0266604 -0.003)
(0.0420918 0.0266772 -0.003)
(0.273506 0.0274685 -0.003)
(0.270519 0.0274685 -0.003)
(0.267536 0.0274686 -0.003)
(0.264559 0.0274687 -0.003)
(0.261593 0.0274688 -0.003)
(0.258638 0.0274689 -0.003)
(0.255698 0.0274691 -0.003)
(0.252775 0.0274692 -0.003)
(0.249871 0.0274694 -0.003)
(0.246989 0.0274696 -0.003)
(0.24413 0.0274698 -0.003)
(0.241297 0.02747 -0.003)
(0.238492 0.0274701 -0.003)
(0.235716 0.0274703 -0.003)
(0.23297 0.0274704 -0.003)
(0.230257 0.0274705 -0.003)
(0.227577 0.0274706 -0.003)
(0.224932 0.0274707 -0.003)
(0.222322 0.0274707 -0.003)
(0.219749 0.0274707 -0.003)
(0.217214 0.0274706 -0.003)
(0.214716 0.0274705 -0.003)
(0.212256 0.0274703 -0.003)
(0.209836 0.0274701 -0.003)
(0.207454 0.0274698 -0.003)
(0.205112 0.0274695 -0.003)
(0.202809 0.0274691 -0.003)
(0.200546 0.0274686 -0.003)
(0.198322 0.027468 -0.003)
(0.196137 0.0274674 -0.003)
(0.193991 0.0274667 -0.003)
(0.191884 0.027466 -0.003)
(0.189815 0.0274651 -0.003)
(0.187783 0.0274642 -0.003)
(0.18579 0.0274633 -0.003)
(0.183833 0.0274622 -0.003)
(0.181912 0.0274611 -0.003)
(0.180028 0.0274599 -0.003)
(0.178178 0.0274586 -0.003)
(0.176363 0.0274573 -0.003)
(0.174582 0.0274559 -0.003)
(0.172834 0.0274544 -0.003)
(0.171119 0.0274529 -0.003)
(0.169436 0.0274513 -0.003)
(0.167784 0.0274497 -0.003)
(0.166163 0.0274479 -0.003)
(0.164571 0.0274462 -0.003)
(0.163008 0.0274444 -0.003)
(0.161474 0.0274425 -0.003)
(0.159968 0.0274406 -0.003)
(0.158488 0.0274386 -0.003)
(0.157035 0.0274366 -0.003)
(0.155608 0.0274346 -0.003)
(0.154206 0.0274325 -0.003)
(0.152828 0.0274304 -0.003)
(0.151474 0.0274282 -0.003)
(0.150143 0.0274261 -0.003)
(0.148834 0.0274239 -0.003)
(0.147548 0.0274217 -0.003)
(0.146283 0.0274195 -0.003)
(0.145039 0.0274173 -0.003)
(0.143815 0.027415 -0.003)
(0.142611 0.0274128 -0.003)
(0.141426 0.0274106 -0.003)
(0.140259 0.0274083 -0.003)
(0.139111 0.0274061 -0.003)
(0.137981 0.0274039 -0.003)
(0.136868 0.0274017 -0.003)
(0.135771 0.0273996 -0.003)
(0.134691 0.0273974 -0.003)
(0.133627 0.0273953 -0.003)
(0.132579 0.0273932 -0.003)
(0.131545 0.0273912 -0.003)
(0.130527 0.0273892 -0.003)
(0.129522 0.0273872 -0.003)
(0.128532 0.0273853 -0.003)
(0.127555 0.0273835 -0.003)
(0.126591 0.0273817 -0.003)
(0.125641 0.02738 -0.003)
(0.124703 0.0273783 -0.003)
(0.123777 0.0273767 -0.003)
(0.122863 0.0273752 -0.003)
(0.121961 0.0273738 -0.003)
(0.12107 0.0273724 -0.003)
(0.120191 0.0273712 -0.003)
(0.119322 0.02737 -0.003)
(0.118463 0.0273689 -0.003)
(0.117615 0.0273679 -0.003)
(0.116778 0.0273671 -0.003)
(0.115949 0.0273663 -0.003)
(0.115131 0.0273656 -0.003)
(0.114321 0.0273651 -0.003)
(0.113521 0.0273647 -0.003)
(0.11273 0.0273644 -0.003)
(0.111947 0.0273642 -0.003)
(0.111173 0.0273641 -0.003)
(0.110408 0.0273642 -0.003)
(0.10965 0.0273644 -0.003)
(0.1089 0.0273648 -0.003)
(0.108158 0.0273653 -0.003)
(0.107423 0.027366 -0.003)
(0.106696 0.0273668 -0.003)
(0.105976 0.0273677 -0.003)
(0.105262 0.0273688 -0.003)
(0.104556 0.0273701 -0.003)
(0.103856 0.0273715 -0.003)
(0.103163 0.0273731 -0.003)
(0.102477 0.0273749 -0.003)
(0.101796 0.0273768 -0.003)
(0.101122 0.0273789 -0.003)
(0.100453 0.0273812 -0.003)
(0.0997902 0.0273836 -0.003)
(0.0991331 0.0273862 -0.003)
(0.0984816 0.027389 -0.003)
(0.0978354 0.0273919 -0.003)
(0.0971944 0.0273951 -0.003)
(0.0965586 0.0273984 -0.003)
(0.0959279 0.0274019 -0.003)
(0.095302 0.0274056 -0.003)
(0.0946808 0.0274094 -0.003)
(0.0940643 0.0274135 -0.003)
(0.0934524 0.0274177 -0.003)
(0.0928448 0.0274221 -0.003)
(0.0922416 0.0274266 -0.003)
(0.0916426 0.0274314 -0.003)
(0.0910477 0.0274363 -0.003)
(0.0904567 0.0274414 -0.003)
(0.0898697 0.0274466 -0.003)
(0.0892864 0.0274521 -0.003)
(0.0887068 0.0274577 -0.003)
(0.0881308 0.0274634 -0.003)
(0.0875583 0.0274693 -0.003)
(0.0869891 0.0274754 -0.003)
(0.0864232 0.0274816 -0.003)
(0.0858606 0.027488 -0.003)
(0.085301 0.0274945 -0.003)
(0.0847445 0.0275012 -0.003)
(0.0841908 0.0275079 -0.003)
(0.08364 0.0275148 -0.003)
(0.083092 0.0275219 -0.003)
(0.0825466 0.027529 -0.003)
(0.0820037 0.0275363 -0.003)
(0.0814634 0.0275436 -0.003)
(0.0809255 0.027551 -0.003)
(0.0803898 0.0275586 -0.003)
(0.0798564 0.0275662 -0.003)
(0.0793252 0.0275738 -0.003)
(0.0787961 0.0275815 -0.003)
(0.0782689 0.0275893 -0.003)
(0.0777437 0.0275971 -0.003)
(0.0772203 0.0276049 -0.003)
(0.0766987 0.0276127 -0.003)
(0.0761787 0.0276205 -0.003)
(0.0756604 0.0276283 -0.003)
(0.0751437 0.027636 -0.003)
(0.0746284 0.0276438 -0.003)
(0.0741145 0.0276514 -0.003)
(0.073602 0.027659 -0.003)
(0.0730907 0.0276665 -0.003)
(0.0725806 0.0276739 -0.003)
(0.0720717 0.0276812 -0.003)
(0.0715638 0.0276883 -0.003)
(0.0710569 0.0276952 -0.003)
(0.0705509 0.027702 -0.003)
(0.0700459 0.0277086 -0.003)
(0.0695416 0.0277149 -0.003)
(0.0690381 0.0277211 -0.003)
(0.0685353 0.0277269 -0.003)
(0.0680331 0.0277325 -0.003)
(0.0675315 0.0277377 -0.003)
(0.0670304 0.0277427 -0.003)
(0.0665298 0.0277472 -0.003)
(0.0660296 0.0277514 -0.003)
(0.0655297 0.0277552 -0.003)
(0.0650302 0.0277586 -0.003)
(0.0645309 0.0277614 -0.003)
(0.0640318 0.0277638 -0.003)
(0.0635329 0.0277657 -0.003)
(0.0630341 0.0277671 -0.003)
(0.0625353 0.0277678 -0.003)
(0.0620366 0.027768 -0.003)
(0.0615378 0.0277675 -0.003)
(0.061039 0.0277664 -0.003)
(0.0605401 0.0277646 -0.003)
(0.060041 0.027762 -0.003)
(0.0595418 0.0277587 -0.003)
(0.0590423 0.0277546 -0.003)
(0.0585426 0.0277497 -0.003)
(0.0580425 0.0277439 -0.003)
(0.0575422 0.0277373 -0.003)
(0.0570414 0.0277297 -0.003)
(0.0565403 0.0277212 -0.003)
(0.0560387 0.0277117 -0.003)
(0.0555367 0.0277012 -0.003)
(0.0550341 0.0276897 -0.003)
(0.054531 0.0276771 -0.003)
(0.0540274 0.0276633 -0.003)
(0.0535231 0.0276485 -0.003)
(0.0530182 0.0276325 -0.003)
(0.0525126 0.0276153 -0.003)
(0.0520062 0.027597 -0.003)
(0.0514991 0.0275774 -0.003)
(0.0509912 0.0275565 -0.003)
(0.0504824 0.0275344 -0.003)
(0.0499726 0.027511 -0.003)
(0.0494618 0.0274864 -0.003)
(0.0489499 0.0274604 -0.003)
(0.0484367 0.0274332 -0.003)
(0.0479223 0.0274047 -0.003)
(0.0474064 0.0273751 -0.003)
(0.0468889 0.0273443 -0.003)
(0.0463696 0.0273126 -0.003)
(0.0458483 0.0272801 -0.003)
(0.0453249 0.0272474 -0.003)
(0.0447992 0.0272151 -0.003)
(0.044271 0.0271846 -0.003)
(0.0437403 0.0271583 -0.003)
(0.0432073 0.027141 -0.003)
(0.0426717 0.0271406 -0.003)
(0.0421319 0.027171 -0.003)
(0.273506 0.0278122 -0.003)
(0.270519 0.0278123 -0.003)
(0.267536 0.0278123 -0.003)
(0.264559 0.0278124 -0.003)
(0.261593 0.0278125 -0.003)
(0.258638 0.0278127 -0.003)
(0.255698 0.0278128 -0.003)
(0.252775 0.027813 -0.003)
(0.249871 0.0278132 -0.003)
(0.246989 0.0278133 -0.003)
(0.24413 0.0278135 -0.003)
(0.241297 0.0278137 -0.003)
(0.238492 0.0278139 -0.003)
(0.235716 0.027814 -0.003)
(0.23297 0.0278142 -0.003)
(0.230257 0.0278143 -0.003)
(0.227577 0.0278144 -0.003)
(0.224932 0.0278144 -0.003)
(0.222323 0.0278144 -0.003)
(0.21975 0.0278144 -0.003)
(0.217214 0.0278144 -0.003)
(0.214716 0.0278142 -0.003)
(0.212257 0.0278141 -0.003)
(0.209836 0.0278139 -0.003)
(0.207455 0.0278136 -0.003)
(0.205113 0.0278132 -0.003)
(0.20281 0.0278128 -0.003)
(0.200546 0.0278123 -0.003)
(0.198322 0.0278118 -0.003)
(0.196137 0.0278112 -0.003)
(0.193991 0.0278105 -0.003)
(0.191884 0.0278097 -0.003)
(0.189815 0.0278089 -0.003)
(0.187784 0.027808 -0.003)
(0.18579 0.027807 -0.003)
(0.183833 0.027806 -0.003)
(0.181913 0.0278048 -0.003)
(0.180028 0.0278036 -0.003)
(0.178179 0.0278024 -0.003)
(0.176364 0.0278011 -0.003)
(0.174583 0.0277997 -0.003)
(0.172835 0.0277982 -0.003)
(0.17112 0.0277967 -0.003)
(0.169437 0.0277951 -0.003)
(0.167785 0.0277934 -0.003)
(0.166163 0.0277917 -0.003)
(0.164571 0.0277899 -0.003)
(0.163009 0.0277881 -0.003)
(0.161475 0.0277862 -0.003)
(0.159968 0.0277843 -0.003)
(0.158489 0.0277824 -0.003)
(0.157036 0.0277803 -0.003)
(0.155609 0.0277783 -0.003)
(0.154206 0.0277762 -0.003)
(0.152828 0.0277741 -0.003)
(0.151474 0.027772 -0.003)
(0.150143 0.0277698 -0.003)
(0.148835 0.0277676 -0.003)
(0.147549 0.0277654 -0.003)
(0.146284 0.0277632 -0.003)
(0.145039 0.027761 -0.003)
(0.143816 0.0277588 -0.003)
(0.142611 0.0277565 -0.003)
(0.141426 0.0277543 -0.003)
(0.14026 0.0277521 -0.003)
(0.139112 0.0277499 -0.003)
(0.137982 0.0277477 -0.003)
(0.136868 0.0277455 -0.003)
(0.135772 0.0277433 -0.003)
(0.134692 0.0277412 -0.003)
(0.133628 0.027739 -0.003)
(0.13258 0.027737 -0.003)
(0.131546 0.0277349 -0.003)
(0.130527 0.0277329 -0.003)
(0.129523 0.027731 -0.003)
(0.128533 0.0277291 -0.003)
(0.127556 0.0277272 -0.003)
(0.126592 0.0277254 -0.003)
(0.125642 0.0277237 -0.003)
(0.124704 0.027722 -0.003)
(0.123778 0.0277204 -0.003)
(0.122864 0.0277189 -0.003)
(0.121962 0.0277175 -0.003)
(0.121071 0.0277161 -0.003)
(0.120191 0.0277148 -0.003)
(0.119323 0.0277136 -0.003)
(0.118464 0.0277126 -0.003)
(0.117616 0.0277116 -0.003)
(0.116778 0.0277107 -0.003)
(0.11595 0.0277099 -0.003)
(0.115132 0.0277092 -0.003)
(0.114322 0.0277087 -0.003)
(0.113522 0.0277082 -0.003)
(0.112731 0.0277079 -0.003)
(0.111948 0.0277077 -0.003)
(0.111174 0.0277077 -0.003)
(0.110408 0.0277078 -0.003)
(0.10965 0.027708 -0.003)
(0.108901 0.0277083 -0.003)
(0.108158 0.0277088 -0.003)
(0.107424 0.0277094 -0.003)
(0.106696 0.0277102 -0.003)
(0.105976 0.0277111 -0.003)
(0.105263 0.0277122 -0.003)
(0.104557 0.0277135 -0.003)
(0.103857 0.0277149 -0.003)
(0.103164 0.0277164 -0.003)
(0.102477 0.0277182 -0.003)
(0.101797 0.0277201 -0.003)
(0.101122 0.0277221 -0.003)
(0.100454 0.0277243 -0.003)
(0.0997908 0.0277267 -0.003)
(0.0991337 0.0277293 -0.003)
(0.0984821 0.0277321 -0.003)
(0.0978359 0.027735 -0.003)
(0.0971949 0.0277381 -0.003)
(0.0965591 0.0277413 -0.003)
(0.0959283 0.0277448 -0.003)
(0.0953024 0.0277484 -0.003)
(0.0946812 0.0277522 -0.003)
(0.0940647 0.0277562 -0.003)
(0.0934527 0.0277604 -0.003)
(0.0928451 0.0277647 -0.003)
(0.0922419 0.0277692 -0.003)
(0.0916428 0.0277739 -0.003)
(0.0910479 0.0277788 -0.003)
(0.0904569 0.0277838 -0.003)
(0.0898698 0.027789 -0.003)
(0.0892865 0.0277943 -0.003)
(0.0887069 0.0277999 -0.003)
(0.0881308 0.0278056 -0.003)
(0.0875582 0.0278114 -0.003)
(0.086989 0.0278174 -0.003)
(0.0864231 0.0278235 -0.003)
(0.0858604 0.0278298 -0.003)
(0.0853008 0.0278363 -0.003)
(0.0847442 0.0278428 -0.003)
(0.0841905 0.0278496 -0.003)
(0.0836396 0.0278564 -0.003)
(0.0830915 0.0278633 -0.003)
(0.0825461 0.0278704 -0.003)
(0.0820032 0.0278776 -0.003)
(0.0814628 0.0278848 -0.003)
(0.0809247 0.0278922 -0.003)
(0.080389 0.0278996 -0.003)
(0.0798556 0.0279072 -0.003)
(0.0793243 0.0279147 -0.003)
(0.078795 0.0279224 -0.003)
(0.0782678 0.0279301 -0.003)
(0.0777424 0.0279378 -0.003)
(0.077219 0.0279455 -0.003)
(0.0766972 0.0279533 -0.003)
(0.0761772 0.027961 -0.003)
(0.0756588 0.0279688 -0.003)
(0.0751419 0.0279765 -0.003)
(0.0746265 0.0279842 -0.003)
(0.0741125 0.0279918 -0.003)