/*--------------------------------*- C++ -*----------------------------------*\
  =========                 |
  \\      /  F ield         | OpenFOAM: The Open Source CFD Toolbox
   \\    /   O peration     | Website:  https://openfoam.org
    \\  /    A nd           | Version:  6
     \\/     M anipulation  |
\*---------------------------------------------------------------------------*/
FoamFile
{
    version     2.0;
    format      ascii;
    class       volScalarField;
    location    "constant";
    object      Cy;
}
// * * * * * * * * * * * * * * * * * * * * * * * * * * * * * * * * * * * * * //

dimensions      [0 1 0 0 0 0 0];

internalField   nonuniform List<scalar> 
97664
(
0.0264372
0.0264373
0.0264373
0.0264374
0.0264375
0.0264377
0.0264378
0.026438
0.0264382
0.0264383
0.0264385
0.0264387
0.0264389
0.026439
0.0264392
0.0264393
0.0264394
0.0264394
0.0264394
0.0264394
0.0264394
0.0264392
0.0264391
0.0264389
0.0264386
0.0264382
0.0264378
0.0264373
0.0264368
0.0264362
0.0264355
0.0264347
0.0264339
0.026433
0.026432
0.026431
0.0264298
0.0264287
0.0264274
0.0264261
0.0264247
0.0264232
0.0264217
0.0264201
0.0264184
0.0264167
0.0264149
0.0264131
0.0264112
0.0264093
0.0264074
0.0264054
0.0264033
0.0264012
0.0263991
0.026397
0.0263948
0.0263927
0.0263905
0.0263883
0.026386
0.0263838
0.0263816
0.0263794
0.0263771
0.0263749
0.0263727
0.0263705
0.0263684
0.0263662
0.0263641
0.0263621
0.02636
0.026358
0.0263561
0.0263542
0.0263524
0.0263506
0.0263489
0.0263472
0.0263456
0.0263441
0.0263427
0.0263414
0.0263401
0.026339
0.0263379
0.026337
0.0263361
0.0263354
0.0263348
0.0263343
0.0263339
0.0263336
0.0263335
0.0263335
0.0263336
0.0263339
0.0263343
0.0263348
0.0263355
0.0263364
0.0263374
0.0263386
0.0263399
0.0263414
0.0263431
0.0263449
0.026347
0.0263491
0.0263515
0.026354
0.0263567
0.0263596
0.0263627
0.026366
0.0263694
0.026373
0.0263768
0.0263808
0.026385
0.0263894
0.0263939
0.0263986
0.0264035
0.0264086
0.0264139
0.0264193
0.0264249
0.0264307
0.0264366
0.0264427
0.026449
0.0264554
0.0264619
0.0264687
0.0264755
0.0264825
0.0264896
0.0264968
0.0265042
0.0265116
0.0265191
0.0265268
0.0265345
0.0265422
0.02655
0.0265579
0.0265658
0.0265738
0.0265817
0.0265896
0.0265975
0.0266054
0.0266132
0.026621
0.0266286
0.0266362
0.0266437
0.026651
0.0266581
0.0266651
0.0266719
0.0266784
0.0266847
0.0266907
0.0266965
0.0267019
0.0267069
0.0267116
0.0267158
0.0267196
0.026723
0.0267258
0.0267282
0.0267299
0.026731
0.0267316
0.0267314
0.0267305
0.0267289
0.0267265
0.0267233
0.0267192
0.0267141
0.0267082
0.0267012
0.0266932
0.0266841
0.0266739
0.0266626
0.02665
0.0266361
0.026621
0.0266044
0.0265865
0.0265671
0.0265462
0.0265238
0.0264998
0.0264741
0.0264468
0.0264177
0.0263868
0.026354
0.0263193
0.0262827
0.026244
0.0262032
0.0261603
0.026115
0.0260674
0.0260173
0.0259645
0.025909
0.0258505
0.0257891
0.0257249
0.0256603
0.0256059
0.026781
0.026781
0.0267811
0.0267812
0.0267813
0.0267814
0.0267816
0.0267817
0.0267819
0.0267821
0.0267823
0.0267825
0.0267826
0.0267828
0.0267829
0.026783
0.0267831
0.0267832
0.0267832
0.0267832
0.0267831
0.026783
0.0267828
0.0267826
0.0267823
0.026782
0.0267816
0.0267811
0.0267805
0.0267799
0.0267792
0.0267785
0.0267776
0.0267767
0.0267758
0.0267747
0.0267736
0.0267724
0.0267711
0.0267698
0.0267684
0.0267669
0.0267654
0.0267638
0.0267622
0.0267605
0.0267587
0.0267569
0.026755
0.0267531
0.0267511
0.0267491
0.0267471
0.026745
0.0267429
0.0267408
0.0267386
0.0267364
0.0267342
0.026732
0.0267298
0.0267275
0.0267253
0.0267231
0.0267209
0.0267187
0.0267164
0.0267143
0.0267121
0.02671
0.0267079
0.0267058
0.0267038
0.0267018
0.0266998
0.0266979
0.0266961
0.0266943
0.0266926
0.0266909
0.0266893
0.0266878
0.0266864
0.0266851
0.0266838
0.0266827
0.0266816
0.0266806
0.0266798
0.026679
0.0266784
0.0266779
0.0266775
0.0266772
0.026677
0.026677
0.0266771
0.0266774
0.0266778
0.0266783
0.026679
0.0266799
0.0266809
0.026682
0.0266833
0.0266848
0.0266864
0.0266883
0.0266902
0.0266924
0.0266947
0.0266972
0.0266999
0.0267028
0.0267058
0.026709
0.0267124
0.026716
0.0267198
0.0267237
0.0267278
0.0267321
0.0267366
0.0267413
0.0267462
0.0267512
0.0267564
0.0267618
0.0267673
0.026773
0.0267789
0.026785
0.0267912
0.0267975
0.026804
0.0268107
0.0268175
0.0268244
0.0268314
0.0268386
0.0268459
0.0268533
0.0268607
0.0268683
0.026876
0.0268837
0.0268914
0.0268993
0.0269071
0.026915
0.0269229
0.0269308
0.0269387
0.0269466
0.0269544
0.0269621
0.0269698
0.0269774
0.0269849
0.0269922
0.0269994
0.0270065
0.0270133
0.02702
0.0270264
0.0270325
0.0270384
0.027044
0.0270492
0.0270541
0.0270586
0.0270627
0.0270664
0.0270695
0.0270722
0.0270744
0.027076
0.027077
0.0270774
0.0270771
0.0270761
0.0270744
0.0270719
0.0270686
0.0270644
0.0270594
0.0270535
0.0270466
0.0270387
0.0270297
0.0270197
0.0270085
0.0269962
0.0269827
0.0269679
0.0269519
0.0269345
0.0269158
0.0268956
0.026874
0.026851
0.0268264
0.0268002
0.0267724
0.026743
0.0267119
0.0266791
0.0266446
0.0266082
0.02657
0.02653
0.0264881
0.0264442
0.0263985
0.0263511
0.0263022
0.0262529
0.0262055
0.0261671
0.026161
0.0271247
0.0271248
0.0271248
0.0271249
0.027125
0.0271252
0.0271253
0.0271255
0.0271257
0.0271258
0.027126
0.0271262
0.0271264
0.0271265
0.0271267
0.0271268
0.0271269
0.0271269
0.0271269
0.0271269
0.0271269
0.0271267
0.0271266
0.0271264
0.0271261
0.0271257
0.0271253
0.0271248
0.0271243
0.0271237
0.027123
0.0271222
0.0271214
0.0271205
0.0271195
0.0271185
0.0271173
0.0271162
0.0271149
0.0271136
0.0271122
0.0271107
0.0271092
0.0271076
0.0271059
0.0271042
0.0271024
0.0271006
0.0270987
0.0270968
0.0270949
0.0270929
0.0270908
0.0270887
0.0270866
0.0270845
0.0270823
0.0270802
0.027078
0.0270757
0.0270735
0.0270713
0.0270691
0.0270668
0.0270646
0.0270624
0.0270602
0.027058
0.0270558
0.0270537
0.0270516
0.0270495
0.0270475
0.0270455
0.0270435
0.0270416
0.0270398
0.027038
0.0270363
0.0270346
0.027033
0.0270315
0.0270301
0.0270287
0.0270275
0.0270263
0.0270253
0.0270243
0.0270234
0.0270227
0.027022
0.0270215
0.0270211
0.0270208
0.0270206
0.0270206
0.0270207
0.0270209
0.0270213
0.0270218
0.0270225
0.0270233
0.0270243
0.0270254
0.0270267
0.0270282
0.0270298
0.0270316
0.0270335
0.0270357
0.0270379
0.0270404
0.0270431
0.0270459
0.0270489
0.0270521
0.0270554
0.027059
0.0270627
0.0270666
0.0270707
0.0270749
0.0270794
0.027084
0.0270888
0.0270938
0.0270989
0.0271042
0.0271097
0.0271154
0.0271212
0.0271272
0.0271333
0.0271396
0.0271461
0.0271526
0.0271594
0.0271662
0.0271732
0.0271803
0.0271875
0.0271948
0.0272022
0.0272098
0.0272173
0.027225
0.0272327
0.0272405
0.0272483
0.0272561
0.027264
0.0272719
0.0272797
0.0272875
0.0272953
0.0273031
0.0273108
0.0273184
0.0273259
0.0273332
0.0273405
0.0273476
0.0273545
0.0273612
0.0273677
0.0273739
0.02738
0.0273857
0.0273911
0.0273962
0.0274009
0.0274052
0.0274092
0.0274127
0.0274157
0.0274182
0.0274203
0.0274217
0.0274226
0.0274229
0.0274225
0.0274214
0.0274196
0.0274171
0.0274137
0.0274096
0.0274046
0.0273987
0.0273919
0.0273842
0.0273754
0.0273656
0.0273547
0.0273428
0.0273297
0.0273154
0.0272999
0.0272832
0.0272652
0.0272459
0.0272252
0.0272032
0.0271798
0.0271549
0.0271286
0.0271009
0.0270716
0.0270408
0.0270086
0.0269748
0.0269395
0.0269028
0.0268648
0.0268257
0.0267859
0.0267463
0.0267087
0.0266772
0.0266604
0.0266772
0.0274685
0.0274685
0.0274686
0.0274687
0.0274688
0.0274689
0.0274691
0.0274692
0.0274694
0.0274696
0.0274698
0.02747
0.0274701
0.0274703
0.0274704
0.0274705
0.0274706
0.0274707
0.0274707
0.0274707
0.0274706
0.0274705
0.0274703
0.0274701
0.0274698
0.0274695
0.0274691
0.0274686
0.027468
0.0274674
0.0274667
0.027466
0.0274651
0.0274642
0.0274633
0.0274622
0.0274611
0.0274599
0.0274586
0.0274573
0.0274559
0.0274544
0.0274529
0.0274513
0.0274497
0.0274479
0.0274462
0.0274444
0.0274425
0.0274406
0.0274386
0.0274366
0.0274346
0.0274325
0.0274304
0.0274282
0.0274261
0.0274239
0.0274217
0.0274195
0.0274173
0.027415
0.0274128
0.0274106
0.0274083
0.0274061
0.0274039
0.0274017
0.0273996
0.0273974
0.0273953
0.0273932
0.0273912
0.0273892
0.0273872
0.0273853
0.0273835
0.0273817
0.02738
0.0273783
0.0273767
0.0273752
0.0273738
0.0273724
0.0273712
0.02737
0.0273689
0.0273679
0.0273671
0.0273663
0.0273656
0.0273651
0.0273647
0.0273644
0.0273642
0.0273641
0.0273642
0.0273644
0.0273648
0.0273653
0.027366
0.0273668
0.0273677
0.0273688
0.0273701
0.0273715
0.0273731
0.0273749
0.0273768
0.0273789
0.0273812
0.0273836
0.0273862
0.027389
0.0273919
0.0273951
0.0273984
0.0274019
0.0274056
0.0274094
0.0274135
0.0274177
0.0274221
0.0274266
0.0274314
0.0274363
0.0274414
0.0274466
0.0274521
0.0274577
0.0274634
0.0274693
0.0274754
0.0274816
0.027488
0.0274945
0.0275012
0.0275079
0.0275148
0.0275219
0.027529
0.0275363
0.0275436
0.027551
0.0275586
0.0275662
0.0275738
0.0275815
0.0275893
0.0275971
0.0276049
0.0276127
0.0276205
0.0276283
0.027636
0.0276438
0.0276514
0.027659
0.0276665
0.0276739
0.0276812
0.0276883
0.0276952
0.027702
0.0277086
0.0277149
0.0277211
0.0277269
0.0277325
0.0277377
0.0277427
0.0277472
0.0277514
0.0277552
0.0277586
0.0277614
0.0277638
0.0277657
0.0277671
0.0277678
0.027768
0.0277675
0.0277664
0.0277646
0.027762
0.0277587
0.0277546
0.0277497
0.0277439
0.0277373
0.0277297
0.0277212
0.0277117
0.0277012
0.0276897
0.0276771
0.0276633
0.0276485
0.0276325
0.0276153
0.027597
0.0275774
0.0275565
0.0275344
0.027511
0.0274864
0.0274604
0.0274332
0.0274047
0.0273751
0.0273443
0.0273126
0.0272801
0.0272474
0.0272151
0.0271846
0.0271583
0.027141
0.0271406
0.027171
0.0278122
0.0278123
0.0278123
0.0278124
0.0278125
0.0278127
0.0278128
0.027813
0.0278132
0.0278133
0.0278135
0.0278137
0.0278139
0.027814
0.0278142
0.0278143
0.0278144
0.0278144
0.0278144
0.0278144
0.0278144
0.0278142
0.0278141
0.0278139
0.0278136
0.0278132
0.0278128
0.0278123
0.0278118
0.0278112
0.0278105
0.0278097
0.0278089
0.027808
0.027807
0.027806
0.0278048
0.0278036
0.0278024
0.0278011
0.0277997
0.0277982
0.0277967
0.0277951
0.0277934
0.0277917
0.0277899
0.0277881
0.0277862
0.0277843
0.0277824
0.0277803
0.0277783
0.0277762
0.0277741
0.027772
0.0277698
0.0277676
0.0277654
0.0277632
0.027761
0.0277588
0.0277565
0.0277543
0.0277521
0.0277499
0.0277477
0.0277455
0.0277433
0.0277412
0.027739
0.027737
0.0277349
0.0277329
0.027731
0.0277291
0.0277272
0.0277254
0.0277237
0.027722
0.0277204
0.0277189
0.0277175
0.0277161
0.0277148
0.0277136
0.0277126
0.0277116
0.0277107
0.0277099
0.0277092
0.0277087
0.0277082
0.0277079
0.0277077
0.0277077
0.0277078
0.027708
0.0277083
0.0277088
0.0277094
0.0277102
0.0277111
0.0277122
0.0277135
0.0277149
0.0277164
0.0277182
0.0277201
0.0277221
0.0277243
0.0277267
0.0277293
0.0277321
0.027735
0.0277381
0.0277413
0.0277448
0.0277484
0.0277522
0.0277562
0.0277604
0.0277647
0.0277692
0.0277739
0.0277788
0.0277838
0.027789
0.0277943
0.0277999
0.0278056
0.0278114
0.0278174
0.0278235
0.0278298
0.0278363
0.0278428
0.0278496
0.0278564
0.0278633
0.0278704
0.0278776
0.0278848
0.0278922
0.0278996
0.0279072
0.0279147
0.0279224
0.0279301
0.0279378
0.0279455
0.0279533
0.027961
0.0279688
0.0279765
0.0279842
0.0279918
0.0279994
0.0280069
0.0280142
0.0280215
0.0280286
0.0280356
0.0280425
0.0280491
0.0280555
0.0280617
0.0280677
0.0280734
0.0280788
0.0280839
0.0280887
0.0280931
0.0280971
0.0281008
0.028104
0.0281067
0.028109
0.0281108
0.028112
0.0281127
0.0281128
0.0281123
0.0281111
0.0281093
0.0281068
0.0281035
0.0280995
0.0280947
0.0280891
0.0280827
0.0280754
0.0280672
0.0280581
0.028048
0.028037
0.0280249
0.0280119
0.0279978
0.0279826
0.0279664
0.0279491
0.0279306
0.0279111
0.0278905
0.0278687
0.0278459
0.0278221
0.0277973
0.0277716
0.0277451
0.0277182
0.0276912
0.0276647
0.0276398
0.027618
0.0276023
0.027597
0.0276091
0.0276481
0.028156
0.028156
0.0281561
0.0281562
0.0281563
0.0281564
0.0281566
0.0281567
0.0281569
0.0281571
0.0281573
0.0281575
0.0281576
0.0281578
0.0281579
0.028158
0.0281581
0.0281582
0.0281582
0.0281582
0.0281581
0.028158
0.0281578
0.0281576
0.0281573
0.028157
0.0281566
0.0281561
0.0281555
0.0281549
0.0281542
0.0281535
0.0281526
0.0281517
0.0281508
0.0281497
0.0281486
0.0281474
0.0281461
0.0281448
0.0281434
0.0281419
0.0281404
0.0281388
0.0281372
0.0281354
0.0281337
0.0281319
0.02813
0.0281281
0.0281261
0.0281241
0.0281221
0.02812
0.0281179
0.0281157
0.0281136
0.0281114
0.0281092
0.028107
0.0281047
0.0281025
0.0281003
0.028098
0.0280958
0.0280936
0.0280914
0.0280892
0.028087
0.0280849
0.0280828
0.0280807
0.0280786
0.0280766
0.0280747
0.0280728
0.0280709
0.0280691
0.0280674
0.0280657
0.0280641
0.0280626
0.0280611
0.0280598
0.0280585
0.0280573
0.0280562
0.0280552
0.0280543
0.0280535
0.0280528
0.0280523
0.0280518
0.0280515
0.0280513
0.0280512
0.0280513
0.0280515
0.0280518
0.0280523
0.0280529
0.0280536
0.0280545
0.0280556
0.0280568
0.0280582
0.0280597
0.0280614
0.0280633
0.0280653
0.0280675
0.0280699
0.0280724
0.0280751
0.028078
0.028081
0.0280843
0.0280877
0.0280912
0.028095
0.0280989
0.028103
0.0281073
0.0281117
0.0281164
0.0281212
0.0281261
0.0281312
0.0281365
0.028142
0.0281476
0.0281534
0.0281593
0.0281654
0.0281716
0.0281779
0.0281844
0.0281911
0.0281978
0.0282047
0.0282117
0.0282187
0.0282259
0.0282332
0.0282406
0.028248
0.0282555
0.0282631
0.0282707
0.0282783
0.028286
0.0282937
0.0283014
0.028309
0.0283167
0.0283243
0.0283319
0.0283395
0.0283469
0.0283543
0.0283615
0.0283687
0.0283757
0.0283825
0.0283892
0.0283957
0.028402
0.028408
0.0284139
0.0284194
0.0284247
0.0284296
0.0284342
0.0284385
0.0284424
0.0284459
0.028449
0.0284516
0.0284538
0.0284554
0.0284566
0.0284572
0.0284573
0.0284568
0.0284556
0.0284538
0.0284514
0.0284482
0.0284444
0.0284397
0.0284344
0.0284282
0.0284212
0.0284134
0.0284047
0.0283952
0.0283847
0.0283734
0.0283611
0.0283478
0.0283337
0.0283185
0.0283024
0.0282853
0.0282673
0.0282484
0.0282286
0.028208
0.0281867
0.0281648
0.0281426
0.0281205
0.0280989
0.0280785
0.0280607
0.0280473
0.0280409
0.0280457
0.0280673
0.0281124
0.0284997
0.0284998
0.0284998
0.0284999
0.0285
0.0285002
0.0285003
0.0285005
0.0285007
0.0285008
0.028501
0.0285012
0.0285014
0.0285015
0.0285017
0.0285018
0.0285019
0.0285019
0.0285019
0.0285019
0.0285019
0.0285017
0.0285016
0.0285013
0.0285011
0.0285007
0.0285003
0.0284998
0.0284993
0.0284987
0.028498
0.0284972
0.0284964
0.0284955
0.0284945
0.0284935
0.0284923
0.0284911
0.0284899
0.0284885
0.0284871
0.0284857
0.0284841
0.0284826
0.0284809
0.0284792
0.0284774
0.0284756
0.0284737
0.0284718
0.0284698
0.0284678
0.0284658
0.0284637
0.0284616
0.0284595
0.0284573
0.0284551
0.0284529
0.0284507
0.0284485
0.0284462
0.028444
0.0284418
0.0284395
0.0284373
0.0284351
0.0284329
0.0284308
0.0284286
0.0284265
0.0284244
0.0284224
0.0284204
0.0284184
0.0284165
0.0284146
0.0284128
0.0284111
0.0284094
0.0284078
0.0284063
0.0284048
0.0284034
0.0284022
0.028401
0.0283998
0.0283988
0.0283979
0.0283971
0.0283964
0.0283959
0.0283954
0.0283951
0.0283948
0.0283948
0.0283948
0.028395
0.0283953
0.0283957
0.0283963
0.028397
0.0283979
0.028399
0.0284002
0.0284015
0.028403
0.0284047
0.0284065
0.0284085
0.0284106
0.028413
0.0284155
0.0284181
0.028421
0.028424
0.0284271
0.0284305
0.028434
0.0284377
0.0284416
0.0284456
0.0284498
0.0284542
0.0284588
0.0284635
0.0284684
0.0284735
0.0284787
0.0284841
0.0284896
0.0284953
0.0285011
0.0285071
0.0285133
0.0285195
0.0285259
0.0285325
0.0285391
0.0285459
0.0285528
0.0285598
0.0285669
0.0285741
0.0285813
0.0285887
0.0285961
0.0286036
0.0286111
0.0286187
0.0286262
0.0286339
0.0286415
0.0286491
0.0286567
0.0286643
0.0286718
0.0286793
0.0286867
0.028694
0.0287013
0.0287084
0.0287154
0.0287223
0.028729
0.0287355
0.0287418
0.028748
0.0287539
0.0287595
0.0287649
0.02877
0.0287748
0.0287793
0.0287834
0.0287872
0.0287906
0.0287935
0.0287961
0.0287981
0.0287997
0.0288009
0.0288015
0.0288015
0.028801
0.0287999
0.0287982
0.0287958
0.0287928
0.0287892
0.0287848
0.0287797
0.0287739
0.0287673
0.02876
0.0287519
0.0287429
0.0287332
0.0287226
0.0287112
0.0286989
0.0286859
0.0286719
0.0286572
0.0286418
0.0286256
0.0286087
0.0285913
0.0285734
0.0285554
0.0285374
0.0285199
0.0285036
0.0284893
0.0284783
0.0284725
0.0284745
0.0284878
0.0285169
0.0285667
0.0288435
0.0288435
0.0288436
0.0288437
0.0288438
0.0288439
0.0288441
0.0288442
0.0288444
0.0288446
0.0288448
0.028845
0.0288451
0.0288453
0.0288454
0.0288455
0.0288456
0.0288457
0.0288457
0.0288457
0.0288456
0.0288455
0.0288453
0.0288451
0.0288448
0.0288445
0.0288441
0.0288436
0.028843
0.0288424
0.0288417
0.028841
0.0288401
0.0288392
0.0288383
0.0288372
0.0288361
0.0288349
0.0288336
0.0288323
0.0288309
0.0288294
0.0288279
0.0288263
0.0288246
0.0288229
0.0288212
0.0288193
0.0288175
0.0288156
0.0288136
0.0288116
0.0288095
0.0288075
0.0288054
0.0288032
0.0288011
0.0287989
0.0287967
0.0287944
0.0287922
0.02879
0.0287877
0.0287855
0.0287833
0.0287811
0.0287788
0.0287767
0.0287745
0.0287723
0.0287702
0.0287681
0.0287661
0.0287641
0.0287621
0.0287602
0.0287583
0.0287565
0.0287548
0.0287531
0.0287515
0.0287499
0.0287485
0.0287471
0.0287458
0.0287446
0.0287435
0.0287425
0.0287416
0.0287407
0.02874
0.0287395
0.028739
0.0287386
0.0287384
0.0287383
0.0287383
0.0287385
0.0287387
0.0287392
0.0287397
0.0287404
0.0287413
0.0287423
0.0287435
0.0287448
0.0287463
0.0287479
0.0287497
0.0287516
0.0287538
0.028756
0.0287585
0.0287611
0.0287639
0.0287669
0.02877
0.0287733
0.0287768
0.0287804
0.0287842
0.0287882
0.0287924
0.0287967
0.0288012
0.0288058
0.0288106
0.0288156
0.0288208
0.0288261
0.0288315
0.0288371
0.0288429
0.0288488
0.0288549
0.028861
0.0288673
0.0288738
0.0288804
0.028887
0.0288938
0.0289007
0.0289077
0.0289148
0.028922
0.0289292
0.0289366
0.0289439
0.0289514
0.0289588
0.0289663
0.0289739
0.0289814
0.0289889
0.0289965
0.029004
0.0290114
0.0290189
0.0290262
0.0290335
0.0290407
0.0290478
0.0290548
0.0290617
0.0290684
0.0290749
0.0290813
0.0290875
0.0290935
0.0290992
0.0291047
0.0291099
0.0291149
0.0291195
0.0291239
0.0291279
0.0291315
0.0291348
0.0291377
0.0291401
0.0291421
0.0291437
0.0291448
0.0291454
0.0291455
0.029145
0.029144
0.0291424
0.0291403
0.0291375
0.0291341
0.02913
0.0291253
0.0291199
0.0291138
0.0291071
0.0290996
0.0290914
0.0290824
0.0290728
0.0290624
0.0290513
0.0290396
0.0290272
0.0290141
0.0290006
0.0289866
0.0289723
0.0289579
0.0289436
0.0289298
0.0289169
0.0289058
0.0288973
0.0288928
0.028894
0.0289034
0.028924
0.0289592
0.0290127
0.0291872
0.0291873
0.0291873
0.0291874
0.0291875
0.0291877
0.0291878
0.029188
0.0291882
0.0291883
0.0291885
0.0291887
0.0291889
0.029189
0.0291892
0.0291893
0.0291894
0.0291894
0.0291894
0.0291894
0.0291894
0.0291892
0.0291891
0.0291888
0.0291886
0.0291882
0.0291878
0.0291873
0.0291868
0.0291862
0.0291855
0.0291847
0.0291839
0.029183
0.029182
0.029181
0.0291798
0.0291786
0.0291774
0.029176
0.0291746
0.0291732
0.0291716
0.02917
0.0291684
0.0291667
0.0291649
0.0291631
0.0291612
0.0291593
0.0291573
0.0291553
0.0291533
0.0291512
0.0291491
0.029147
0.0291448
0.0291426
0.0291404
0.0291382
0.029136
0.0291337
0.0291315
0.0291292
0.029127
0.0291248
0.0291226
0.0291204
0.0291182
0.0291161
0.0291139
0.0291118
0.0291098
0.0291078
0.0291058
0.0291039
0.029102
0.0291002
0.0290985
0.0290968
0.0290952
0.0290936
0.0290922
0.0290908
0.0290895
0.0290882
0.0290871
0.0290861
0.0290852
0.0290844
0.0290836
0.029083
0.0290825
0.0290822
0.0290819
0.0290818
0.0290818
0.0290819
0.0290822
0.0290826
0.0290832
0.0290838
0.0290847
0.0290857
0.0290868
0.0290881
0.0290895
0.0290911
0.0290929
0.0290948
0.0290969
0.0290991
0.0291015
0.0291041
0.0291068
0.0291097
0.0291128
0.0291161
0.0291195
0.0291231
0.0291268
0.0291307
0.0291348
0.0291391
0.0291435
0.0291481
0.0291528
0.0291577
0.0291628
0.029168
0.0291734
0.0291789
0.0291846
0.0291904
0.0291964
0.0292025
0.0292087
0.029215
0.0292215
0.0292281
0.0292348
0.0292416
0.0292485
0.0292554
0.0292625
0.0292697
0.0292769
0.0292841
0.0292915
0.0292988
0.0293062
0.0293137
0.0293211
0.0293286
0.029336
0.0293434
0.0293508
0.0293582
0.0293655
0.0293727
0.0293799
0.0293869
0.0293939
0.0294007
0.0294074
0.029414
0.0294204
0.0294266
0.0294326
0.0294385
0.029444
0.0294494
0.0294545
0.0294593
0.0294638
0.029468
0.0294719
0.0294754
0.0294786
0.0294814
0.0294838
0.0294858
0.0294874
0.0294885
0.0294891
0.0294893
0.0294889
0.0294881
0.0294867
0.0294847
0.0294822
0.0294792
0.0294755
0.0294712
0.0294664
0.0294609
0.0294548
0.0294481
0.0294407
0.0294328
0.0294242
0.0294151
0.0294054
0.0293953
0.0293847
0.0293738
0.0293626
0.0293514
0.0293404
0.0293298
0.0293201
0.0293118
0.0293057
0.0293028
0.0293043
0.029312
0.029328
0.0293547
0.0293951
0.0294519
0.029531
0.029531
0.0295311
0.0295312
0.0295313
0.0295314
0.0295316
0.0295317
0.0295319
0.0295321
0.0295323
0.0295325
0.0295326
0.0295328
0.0295329
0.029533
0.0295331
0.0295332
0.0295332
0.0295332
0.0295331
0.029533
0.0295328
0.0295326
0.0295323
0.029532
0.0295316
0.0295311
0.0295305
0.0295299
0.0295292
0.0295285
0.0295276
0.0295267
0.0295258
0.0295247
0.0295236
0.0295224
0.0295211
0.0295198
0.0295184
0.0295169
0.0295154
0.0295138
0.0295121
0.0295104
0.0295087
0.0295068
0.029505
0.029503
0.0295011
0.0294991
0.029497
0.0294949
0.0294928
0.0294907
0.0294885
0.0294863
0.0294841
0.0294819
0.0294797
0.0294775
0.0294752
0.029473
0.0294707
0.0294685
0.0294663
0.0294641
0.0294619
0.0294598
0.0294577
0.0294556
0.0294535
0.0294515
0.0294495
0.0294476
0.0294457
0.0294439
0.0294422
0.0294405
0.0294388
0.0294373
0.0294358
0.0294344
0.0294331
0.0294319
0.0294308
0.0294297
0.0294288
0.029428
0.0294272
0.0294266
0.0294261
0.0294257
0.0294255
0.0294253
0.0294253
0.0294254
0.0294257
0.029426
0.0294266
0.0294272
0.029428
0.029429
0.0294301
0.0294313
0.0294328
0.0294343
0.029436
0.0294379
0.02944
0.0294422
0.0294445
0.029447
0.0294497
0.0294526
0.0294556
0.0294588
0.0294622
0.0294657
0.0294694
0.0294732
0.0294773
0.0294815
0.0294858
0.0294903
0.029495
0.0294998
0.0295048
0.0295099
0.0295152
0.0295206
0.0295262
0.0295319
0.0295378
0.0295438
0.0295499
0.0295562
0.0295625
0.029569
0.0295756
0.0295823
0.0295891
0.029596
0.0296029
0.0296099
0.0296171
0.0296242
0.0296314
0.0296387
0.029646
0.0296533
0.0296607
0.029668
0.0296754
0.0296827
0.02969
0.0296973
0.0297045
0.0297117
0.0297188
0.0297258
0.0297327
0.0297395
0.0297462
0.0297527
0.0297591
0.0297654
0.0297714
0.0297773
0.029783
0.0297884
0.0297936
0.0297985
0.0298032
0.0298076
0.0298117
0.0298155
0.029819
0.0298221
0.0298248
0.0298272
0.0298292
0.0298308
0.029832
0.0298327
0.029833
0.0298328
0.0298321
0.029831
0.0298294
0.0298272
0.0298246
0.0298214
0.0298177
0.0298135
0.0298087
0.0298034
0.0297976
0.0297914
0.0297846
0.0297774
0.0297698
0.0297618
0.0297536
0.0297453
0.029737
0.0297288
0.0297212
0.0297143
0.0297086
0.0297048
0.0297036
0.029706
0.0297132
0.0297267
0.0297486
0.0297807
0.0298255
0.0298851
0.0298747
0.0298748
0.0298748
0.0298749
0.029875
0.0298752
0.0298753
0.0298755
0.0298757
0.0298758
0.029876
0.0298762
0.0298764
0.0298765
0.0298767
0.0298768
0.0298769
0.0298769
0.0298769
0.0298769
0.0298769
0.0298767
0.0298766
0.0298763
0.0298761
0.0298757
0.0298753
0.0298748
0.0298743
0.0298737
0.029873
0.0298722
0.0298714
0.0298705
0.0298695
0.0298685
0.0298673
0.0298661
0.0298649
0.0298635
0.0298621
0.0298607
0.0298591
0.0298575
0.0298559
0.0298542
0.0298524
0.0298506
0.0298487
0.0298468
0.0298448
0.0298428
0.0298408
0.0298387
0.0298366
0.0298344
0.0298323
0.0298301
0.0298279
0.0298257
0.0298234
0.0298212
0.029819
0.0298167
0.0298145
0.0298123
0.02981
0.0298078
0.0298057
0.0298035
0.0298014
0.0297993
0.0297972
0.0297952
0.0297932
0.0297913
0.0297894
0.0297876
0.0297858
0.0297842
0.0297825
0.029781
0.0297795
0.0297781
0.0297768
0.0297755
0.0297744
0.0297733
0.0297724
0.0297716
0.0297708
0.0297702
0.0297697
0.0297693
0.029769
0.0297688
0.0297688
0.0297689
0.0297691
0.0297695
0.02977
0.0297706
0.0297714
0.0297723
0.0297734
0.0297746
0.029776
0.0297775
0.0297792
0.029781
0.029783
0.0297852
0.0297875
0.02979
0.0297926
0.0297954
0.0297984
0.0298015
0.0298048
0.0298083
0.0298119
0.0298157
0.0298197
0.0298238
0.0298281
0.0298325
0.0298371
0.0298418
0.0298467
0.0298518
0.029857
0.0298623
0.0298678
0.0298734
0.0298792
0.0298851
0.0298911
0.0298972
0.0299035
0.0299099
0.0299163
0.0299229
0.0299296
0.0299364
0.0299432
0.0299501
0.0299571
0.0299642
0.0299713
0.0299784
0.0299856
0.0299928
0.03
0.0300073
0.0300145
0.0300218
0.030029
0.0300362
0.0300433
0.0300504
0.0300574
0.0300643
0.0300712
0.030078
0.0300846
0.0300911
0.0300975
0.0301038
0.0301099
0.0301158
0.0301215
0.030127
0.0301323
0.0301373
0.0301422
0.0301467
0.030151
0.030155
0.0301587
0.0301621
0.0301652
0.030168
0.0301703
0.0301724
0.030174
0.0301753
0.0301762
0.0301767
0.0301767
0.0301763
0.0301755
0.0301743
0.0301726
0.0301705
0.0301679
0.0301649
0.0301615
0.0301576
0.0301533
0.0301486
0.0301436
0.0301383
0.0301327
0.030127
0.0301212
0.0301154
0.0301099
0.0301048
0.0301005
0.0300972
0.0300956
0.0300961
0.0300996
0.030107
0.0301194
0.0301384
0.0301655
0.0302024
0.0302511
0.0303133
0.0302185
0.0302185
0.0302186
0.0302187
0.0302188
0.0302189
0.0302191
0.0302192
0.0302194
0.0302196
0.0302198
0.03022
0.0302201
0.0302203
0.0302204
0.0302205
0.0302206
0.0302207
0.0302207
0.0302207
0.0302206
0.0302205
0.0302203
0.0302201
0.0302198
0.0302195
0.0302191
0.0302186
0.030218
0.0302174
0.0302167
0.030216
0.0302151
0.0302142
0.0302133
0.0302122
0.0302111
0.0302099
0.0302086
0.0302073
0.0302059
0.0302044
0.0302029
0.0302013
0.0301996
0.0301979
0.0301961
0.0301943
0.0301925
0.0301905
0.0301886
0.0301866
0.0301845
0.0301824
0.0301803
0.0301782
0.030176
0.0301738
0.0301716
0.0301694
0.0301672
0.0301649
0.0301627
0.0301605
0.0301582
0.030156
0.0301538
0.0301516
0.0301494
0.0301472
0.0301451
0.030143
0.0301409
0.0301389
0.0301369
0.030135
0.0301331
0.0301313
0.0301295
0.0301278
0.0301262
0.0301246
0.0301231
0.0301217
0.0301204
0.0301192
0.030118
0.030117
0.030116
0.0301152
0.0301144
0.0301138
0.0301132
0.0301128
0.0301125
0.0301123
0.0301123
0.0301123
0.0301125
0.0301129
0.0301134
0.030114
0.0301147
0.0301156
0.0301167
0.0301179
0.0301192
0.0301207
0.0301223
0.0301241
0.0301261
0.0301282
0.0301305
0.0301329
0.0301355
0.0301382
0.0301412
0.0301442
0.0301475
0.0301509
0.0301544
0.0301582
0.030162
0.0301661
0.0301703
0.0301746
0.0301791
0.0301838
0.0301886
0.0301936
0.0301987
0.0302039
0.0302093
0.0302148
0.0302205
0.0302263
0.0302322
0.0302382
0.0302444
0.0302506
0.030257
0.0302635
0.03027
0.0302767
0.0302834
0.0302902
0.0302971
0.030304
0.030311
0.030318
0.0303251
0.0303321
0.0303393
0.0303464
0.0303535
0.0303606
0.0303677
0.0303748
0.0303819
0.0303889
0.0303958
0.0304027
0.0304095
0.0304162
0.0304228
0.0304293
0.0304356
0.0304418
0.0304479
0.0304538
0.0304596
0.0304652
0.0304705
0.0304757
0.0304806
0.0304853
0.0304898
0.030494
0.0304979
0.0305016
0.030505
0.0305081
0.0305108
0.0305133
0.0305154
0.0305172
0.0305186
0.0305197
0.0305204
0.0305208
0.0305208
0.0305204
0.0305197
0.0305186
0.0305171
0.0305153
0.0305131
0.0305106
0.0305078
0.0305048
0.0305015
0.030498
0.0304945
0.0304909
0.0304875
0.0304843
0.0304816
0.0304795
0.0304785
0.0304788
0.0304811
0.0304858
0.0304938
0.0305059
0.0305233
0.0305472
0.030579
0.0306202
0.0306724
0.030737
0.0305622
0.0305623
0.0305623
0.0305624
0.0305625
0.0305627
0.0305628
0.030563
0.0305632
0.0305633
0.0305635
0.0305637
0.0305639
0.030564
0.0305642
0.0305643
0.0305644
0.0305644
0.0305644
0.0305644
0.0305644
0.0305642
0.0305641
0.0305638
0.0305636
0.0305632
0.0305628
0.0305623
0.0305618
0.0305612
0.0305605
0.0305597
0.0305589
0.030558
0.030557
0.0305559
0.0305548
0.0305536
0.0305524
0.030551
0.0305496
0.0305482
0.0305466
0.030545
0.0305434
0.0305417
0.0305399
0.0305381
0.0305362
0.0305343
0.0305323
0.0305303
0.0305283
0.0305262
0.0305241
0.0305219
0.0305198
0.0305176
0.0305154
0.0305131
0.0305109
0.0305087
0.0305064
0.0305042
0.0305019
0.0304997
0.0304975
0.0304953
0.0304931
0.030491
0.0304888
0.0304867
0.0304847
0.0304826
0.0304806
0.0304787
0.0304768
0.030475
0.0304732
0.0304715
0.0304699
0.0304683
0.0304668
0.0304654
0.0304641
0.0304628
0.0304616
0.0304606
0.0304596
0.0304587
0.030458
0.0304573
0.0304568
0.0304563
0.030456
0.0304558
0.0304557
0.0304558
0.030456
0.0304563
0.0304567
0.0304573
0.0304581
0.0304589
0.0304599
0.0304611
0.0304624
0.0304638
0.0304655
0.0304672
0.0304691
0.0304712
0.0304734
0.0304758
0.0304783
0.030481
0.0304839
0.0304869
0.0304901
0.0304934
0.0304969
0.0305006
0.0305044
0.0305084
0.0305125
0.0305167
0.0305212
0.0305258
0.0305305
0.0305353
0.0305404
0.0305455
0.0305508
0.0305562
0.0305618
0.0305674
0.0305732
0.0305792
0.0305852
0.0305913
0.0305976
0.0306039
0.0306104
0.0306169
0.0306235
0.0306301
0.0306369
0.0306437
0.0306505
0.0306574
0.0306644
0.0306713
0.0306783
0.0306853
0.0306923
0.0306993
0.0307063
0.0307133
0.0307202
0.0307271
0.030734
0.0307408
0.0307475
0.0307541
0.0307606
0.0307671
0.0307734
0.0307796
0.0307857
0.0307916
0.0307974
0.030803
0.0308084
0.0308136
0.0308187
0.0308235
0.0308281
0.0308325
0.0308366
0.0308405
0.0308442
0.0308476
0.0308507
0.0308536
0.0308561
0.0308584
0.0308604
0.030862
0.0308634
0.0308645
0.0308653
0.0308657
0.0308659
0.0308658
0.0308654
0.0308647
0.0308638
0.0308627
0.0308613
0.0308599
0.0308583
0.0308567
0.0308552
0.0308538
0.0308527
0.030852
0.0308521
0.030853
0.0308553
0.0308591
0.0308652
0.030874
0.0308862
0.0309029
0.0309248
0.0309533
0.0309894
0.0310345
0.0310899
0.0311566
0.030906
0.030906
0.0309061
0.0309062
0.0309063
0.0309064
0.0309066
0.0309067
0.0309069
0.0309071
0.0309073
0.0309075
0.0309076
0.0309078
0.0309079
0.030908
0.0309081
0.0309082
0.0309082
0.0309082
0.0309081
0.030908
0.0309078
0.0309076
0.0309073
0.030907
0.0309066
0.0309061
0.0309055
0.0309049
0.0309042
0.0309035
0.0309026
0.0309017
0.0309007
0.0308997
0.0308986
0.0308974
0.0308961
0.0308948
0.0308934
0.0308919
0.0308904
0.0308888
0.0308871
0.0308854
0.0308836
0.0308818
0.0308799
0.030878
0.0308761
0.0308741
0.030872
0.0308699
0.0308678
0.0308657
0.0308635
0.0308613
0.0308591
0.0308569
0.0308546
0.0308524
0.0308502
0.0308479
0.0308457
0.0308434
0.0308412
0.030839
0.0308368
0.0308347
0.0308325
0.0308304
0.0308284
0.0308263
0.0308244
0.0308224
0.0308205
0.0308187
0.0308169
0.0308152
0.0308136
0.030812
0.0308105
0.030809
0.0308077
0.0308064
0.0308053
0.0308042
0.0308032
0.0308023
0.0308016
0.0308009
0.0308003
0.0307999
0.0307995
0.0307993
0.0307992
0.0307993
0.0307994
0.0307997
0.0308001
0.0308007
0.0308014