/*--------------------------------*- C++ -*----------------------------------*\
| =========                 |                                                 |
| \\      /  F ield         | OpenFOAM: The Open Source CFD Toolbox           |
|  \\    /   O peration     | Version:  v2012                                 |
|   \\  /    A nd           | Website:  www.openfoam.com                      |
|    \\/     M anipulation  |                                                 |
\*---------------------------------------------------------------------------*/
FoamFile
{
    version     2.0;
    format      ascii;
    class       dictionary;
    object      createPatchDict;
}
// * * * * * * * * * * * * * * * * * * * * * * * * * * * * * * * * * * * * * //

pointSync false;



// Patches to create.
patches
(
    {
        // Name of new patch
        name INLET;

        // Dictionary to construct new patch from
        patchInfo
        {
            type patch;
        }

        // How to construct: either from 'patches' or 'set'
        constructFrom patches;

        // If constructFrom = patches : names of patches. Wildcards allowed.
        patches (INLET_1);

    }
    {
        // Name of new patch
        name OUTLET;

        // Dictionary to construct new patch from
        patchInfo
        {
            type patch;
        }

        // How to construct: either from 'patches' or 'set'
        constructFrom patches;

        // If constructFrom = patches : names of patches. Wildcards allowed.
        patches (OUTLET_1);

    }


    {
        // Name of new patch
        name Blade;

        // Dictionary to construct new patch from
        patchInfo
        {
            type wall;
        }

        // How to construct: either from 'patches' or 'set'
        constructFrom patches;

        // If constructFrom = patches : names of patches. Wildcards allowed.
        patches (SOLID_WALL_1 SOLID_WALL_2);

    }

    {
        // Name of new patch
        name back;

        // Dictionary to construct new patch from
        patchInfo
        {
            type cyclic;
            neighbourPatch front;
            transform translational;
	    separationVector (0 0 -0.024);
	    matchTolerance 1E-5;
        }

        // How to construct: either from 'patches' or 'set'
        constructFrom patches;

        // If constructFrom = patches : names of patches. Wildcards allowed.
        patches (PER_RIGHT_1 PER_RIGHT_3 PER_RIGHT_4 PER_RIGHT_6 PER_RIGHT_7 PER_RIGHT_8 PER_RIGHT_10);
	set f0;
    }
    {
        // Name of new patch
        name front;

        // Dictionary to construct new patch from
        patchInfo
        {
            type cyclic;
	    neighbourPatch back;
            transform translational;
            separationVector (0 0 0.024);
	    matchTolerance 1E-5;
        }

        // How to construct: either from 'patches' or 'set'
        constructFrom patches;

        // If constructFrom = patches : names of patches. Wildcards allowed.
        patches  (PER_LEFT_1 PER_LEFT_3 PER_LEFT_4 PER_LEFT_6 PER_LEFT_7 PER_LEFT_8 PER_LEFT_10);
	set f0;
    }



);

// ************************************************************************* //
