/*--------------------------------*- C++ -*----------------------------------*\
| =========                 |                                                 |
| \\      /  F ield         | OpenFOAM: The Open Source CFD Toolbox           |
|  \\    /   O peration     | Version:  v2006                                 |
|   \\  /    A nd           | Website:  www.openfoam.com                      |
|    \\/     M anipulation  |                                                 |
\*---------------------------------------------------------------------------*/
FoamFile
{
    version     2.0;
    format      ascii;
    class       dictionary;
    object      fvSchemes;
}
// * * * * * * * * * * * * * * * * * * * * * * * * * * * * * * * * * * * * * //
//dbnsFlux hllcLMFlux;
//dbnsFlux betaFlux;
//dbnsFlux AUSMplusUpFlux;
fluxScheme           AUSMPlusUp;


//AUSMplusUpFluxCoeffs {
//   MaInf 0.2;
//   printCoeffs true;
//}

ddtSchemes
{
 //default         Euler;
 default         backward;
}

gradSchemes
{
    default          cellLimited faceLeastSquares linear 0.6;
    grad(nuTilda)    cellLimited Gauss linear 0.9;
    grad(k)          cellLimited Gauss linear 0.9;
    grad(omega)      cellLimited Gauss linear 0.9;
}

divSchemes
{
    default         none;
    div(tauMC)       Gauss linear;
    div(phi,nuTilda) bounded Gauss upwind phi;
    div(phi,k)       bounded Gauss upwind phi;
    div(phi,omega)   bounded Gauss upwind phi;
//    div(devRhoReff) Gauss linear;
//    div((devRhoReff&U)) Gauss linear;

//    div((muEff*dev2(grad(U).T()))) Gauss linear;

//    div(phi,U)      Gauss MinmodV;

//    turbulence      Gauss limitedLinear 1.0;
//    energy          Gauss limitedLinear 1.0;

//    div(phi,k)       $turbulence;
//    div(phi,omega)   $turbulence;
    
//    div(phi,h)      $energy;
//    div(phi,K)      $energy;
//    div(phi,Ekp)    $energy;

//    div(phiv,p)     Gauss limitedLinear 1.0;
//    div(phid,p)     Gauss limitedLinear 1.0;

//    div(((rho*nuEff)*dev2(T(grad(U)))))    Gauss linear;
//    div((nuEff*dev2(T(grad(U))))) Gauss linear;
//    div(((rho*(thermo:mu|rho))*dev2(T(grad(U))))) Gauss linear;
}

laplacianSchemes
{
    default                     Gauss linear corrected;
    laplacian(muEff,U)          Gauss linear compact;
    laplacian(alphaEff,e)       Gauss linear compact;
}

interpolationSchemes
{
    default          linear;
    reconstruct(rho) wVanLeer;
    reconstruct(U)   wVanLeer;
    reconstruct(T)   wVanLeer;
}

snGradSchemes
{
    default         corrected;
}



wallDist
{
    //method meshWave;
    method Poisson;
}

// ************************************************************************* //
