/*--------------------------------*- C++ -*----------------------------------*\
| =========                 |                                                 |
| \\      /  F ield         | OpenFOAM: The Open Source CFD Toolbox           |
|  \\    /   O peration     | Version:  dev                                   |
|   \\  /    A nd           | Web:      www.OpenFOAM.org                      |
|    \\/     M anipulation  |                                                 |
\*---------------------------------------------------------------------------*/
FoamFile
{
    version     2.0;
    format      ascii;
    class       volScalarField;
    object      T;
}
// * * * * * * * * * * * * * * * * * * * * * * * * * * * * * * * * * * * * * //


#include        "include/freestreamConditions"



dimensions      [0 0 0 1 0 0 0];

internalField   uniform $Tinlet;

boundaryField
{
    INLET
    {
//      type fixedValue; 
//      value uniform $Tinlet;
     //   type            zeroGradient;
     //   value           $internalField;
        type         characteristicFarfieldTemperature;
        U            $Uinlet;
     	p            $pinlet;
        T            $Tinlet;
	value        uniform $Tinlet;
//        type       totalTemperature;
//        gamma      1.4;
//        psi        thermo:psi;
//        T0         uniform $Ttotal;
//        value      uniform $Tinlet;
    }
    OUTLET
    {

//*1
        type zeroGradient;
        value           $internalField;

//*2
//        type    characteristicFarfieldTemperature;
//        U            $Uoutlet;
//        p            $poutlet;
//        T            $Toutlet;
//        value         uniform     $Toutlet;

//*3
//        type            temperatureOutletNSCBC;
//        field           T;
//        gamma           1.4;
//        fieldInf        1;
//        lInf            0.07;
//        pInf            $poutlet;
//        etaAc           1;
//        value           $internalField;
//        type            inletOutlet;
//        inletValue      uniform $Tinlet;
//        value           $inletValue;
    }
    row_1_PER1
    {
        type            cyclic;
    }
    row_1_PER2
    {
        type            cyclic;

    }
    Blade
    {
        type            characteristicWallTemperature;
        value           $internalField;

//        type            zeroGradient;
    }
    front
    {
        type            empty;
    }
    back
    {
        type            empty;
    }
}

// ************************************************************************* //
