/*--------------------------------*- C++ -*----------------------------------*\
| =========                 |                                                 |
| \\      /  F ield         | foam-extend: Open Source CFD                    |
|  \\    /   O peration     | Version:     4.0                                |
|   \\  /    A nd           | Web:         http://www.foam-extend.org         |
|    \\/     M anipulation  |                                                 |
\*---------------------------------------------------------------------------*/
FoamFile
{
    version     2.0;
    format      ascii;
    class       polyBoundaryMesh;
    location    "constant/polyMesh";
    object      boundary;
}
// * * * * * * * * * * * * * * * * * * * * * * * * * * * * * * * * * * * * * //

5
(
    inlet
    {
        type            patch;
        nFaces          1;
        startFace       589;
    }
    outlet
    {
        type            patch;
        nFaces          1;
        startFace       590;
    }
    bottom
    {
        type            symmetryPlane;
        nFaces          590;
        startFace       591;
    }
    top
    {
        type            symmetryPlane;
        nFaces          590;
        startFace       1181;
    }
    defaultFaces
    {
        type            empty;
        nFaces          1180;
        startFace       1771;
    }
)


// ************************************************************************* //
