/*--------------------------------*- C++ -*----------------------------------*\
| =========                 |                                                 |
| \\      /  F ield         | OpenFOAM: The Open Source CFD Toolbox           |
|  \\    /   O peration     | Version:  v2006                                 |
|   \\  /    A nd           | Website:  www.openfoam.com                      |
|    \\/     M anipulation  |                                                 |
\*---------------------------------------------------------------------------*/
FoamFile
{
    version     2.0;
    format      ascii;
    class       dictionary;
    location    "system";
    object      sampling;
}
// * * * * * * * * * * * * * * * * * * * * * * * * * * * * * * * * * * * * * //

// Setup for surfaceFieldValue
//
//   restartTime:
//     - a 'one-shot' reset at a particular time
//
// fields [required]
//     Pairs of fields to use for calculating the deviation.
//     The fields must already exist on the surfaces.
//
// weightField [optional]
//     A scalar or vector field for weighting.
//
// postOperation [optional]
//     Modify the results by particular operations.
//     (none | sqrt)
//     The sqrt operation is useful when determining RMS values.
//
// The 'output/write' control triggers the calculation.
__surfaceFieldValue1
{
    type            surfaceFieldValue;
    libs            (fieldFunctionObjects);
    log             on;
    enabled         true;

    writeControl    writeTime;
    writeInterval   1;

    writeFields     false;
    surfaceFormat   vtk;
    // writeArea       true;

    // resetOnStartUp  true;
    // resetOnOutput   false;
    // periodicRestart true;
    // restartPeriod   0.0005;
}


// * * * * * * * * * * * * * * * * Sampling  * * * * * * * * * * * * * * * * //

// Sample volume fields to surfaces and hold on registry.
sampled1
{
    type    surfaces;
    libs    (sampling);
    log     true;

    executeControl  timeStep;
    executeInterval 1;
    writeControl    none;
    sampleOnExecute true;

    surfaceFormat   none;

    fields      (Ma);

    _plane1
    {
        type    plane;
        source  cells;
        store   true;

        planeType   pointAndNormal;

        pointAndNormalDict
        {
            normal (-1 0 0);
            point  (-0.023 0 0);
        }
    }

    surfaces
    {
        // Top channel
        plane1
        {
            ${_plane1}
            bounds (-1 -1 -1) (1 1 1);
        }
    }
}


// * * * * * * * * * * * * * * * Calculations  * * * * * * * * * * * * * * * //

inletMach
{
    ${__surfaceFieldValue1}

    regionType      functionObjectSurface;
    name            sampled1.plane1;

    operation       areaAverage;

    fields          ( Ma );
}





// * * * * * * * * * * * * * * * * * Cleanup * * * * * * * * * * * * * * * * //

#remove "__.*"


// ************************************************************************* //
