/*--------------------------------*- C++ -*----------------------------------*\
  =========                 |
  \\      /  F ield         | OpenFOAM: The Open Source CFD Toolbox
   \\    /   O peration     | Website:  https://openfoam.org
    \\  /    A nd           | Version:  6
     \\/     M anipulation  |
\*---------------------------------------------------------------------------*/
FoamFile
{
    version     2.0;
    format      ascii;
    class       volScalarField;
    location    "constant";
    object      Cx;
}
// * * * * * * * * * * * * * * * * * * * * * * * * * * * * * * * * * * * * * //

dimensions      [0 1 0 0 0 0 0];

internalField   nonuniform List<scalar> 
97664
(
0.273506
0.270519
0.267535
0.264559
0.261592
0.258638
0.255697
0.252774
0.249871
0.246988
0.24413
0.241297
0.238491
0.235715
0.23297
0.230256
0.227577
0.224931
0.222322
0.219749
0.217213
0.214715
0.212256
0.209835
0.207454
0.205111
0.202808
0.200545
0.198321
0.196136
0.19399
0.191883
0.189813
0.187782
0.185788
0.183832
0.181911
0.180026
0.178177
0.176362
0.174581
0.172833
0.171118
0.169435
0.167783
0.166161
0.164569
0.163007
0.161473
0.159966
0.158487
0.157034
0.155606
0.154204
0.152826
0.151472
0.150141
0.148833
0.147546
0.146281
0.145037
0.143813
0.142609
0.141424
0.140258
0.13911
0.137979
0.136866
0.13577
0.13469
0.133626
0.132577
0.131544
0.130525
0.129521
0.12853
0.127553
0.12659
0.125639
0.124701
0.123775
0.122862
0.121959
0.121069
0.120189
0.11932
0.118462
0.117614
0.116776
0.115948
0.115129
0.11432
0.11352
0.112728
0.111946
0.111172
0.110406
0.109648
0.108898
0.108156
0.107422
0.106694
0.105974
0.105261
0.104555
0.103855
0.103162
0.102475
0.101795
0.10112
0.100452
0.0997892
0.0991322
0.0984807
0.0978345
0.0971937
0.0965579
0.0959272
0.0953014
0.0946804
0.094064
0.0934521
0.0928447
0.0922416
0.0916426
0.0910478
0.090457
0.0898701
0.0892869
0.0887075
0.0881316
0.0875592
0.0869903
0.0864246
0.0858621
0.0853027
0.0847464
0.0841929
0.0836424
0.0830945
0.0825494
0.0820068
0.0814667
0.0809291
0.0803937
0.0798607
0.0793298
0.0788009
0.0782741
0.0777493
0.0772263
0.0767051
0.0761856
0.0756677
0.0751514
0.0746366
0.0741232
0.0736112
0.0731005
0.072591
0.0720827
0.0715754
0.0710692
0.070564
0.0700596
0.0695561
0.0690534
0.0685514
0.0680501
0.0675494
0.0670493
0.0665497
0.0660505
0.0655518
0.0650534
0.0645553
0.0640575
0.0635599
0.0630624
0.0625651
0.0620679
0.0615707
0.0610736
0.0605763
0.0600791
0.0595817
0.0590841
0.0585864
0.0580884
0.0575902
0.0570918
0.056593
0.0560938
0.0555942
0.0550942
0.0545938
0.0540928
0.0535913
0.0530892
0.0525865
0.052083
0.0515788
0.0510737
0.0505677
0.0500606
0.0495524
0.0490429
0.0485318
0.0480191
0.0475043
0.0469871
0.0464671
0.0459437
0.045416
0.044883
0.0443431
0.0437939
0.0432318
0.042651
0.0420292
0.273506
0.270519
0.267535
0.264559
0.261592
0.258638
0.255697
0.252774
0.249871
0.246988
0.24413
0.241297
0.238491
0.235715
0.23297
0.230256
0.227577
0.224931
0.222322
0.219749
0.217213
0.214715
0.212256
0.209835
0.207454
0.205111
0.202808
0.200545
0.198321
0.196136
0.19399
0.191883
0.189813
0.187782
0.185788
0.183832
0.181911
0.180026
0.178177
0.176362
0.174581
0.172833
0.171118
0.169435
0.167783
0.166161
0.16457
0.163007
0.161473
0.159966
0.158487
0.157034
0.155606
0.154204
0.152826
0.151472
0.150141
0.148833
0.147546
0.146281
0.145037
0.143813
0.142609
0.141424
0.140258
0.13911
0.137979
0.136866
0.13577
0.13469
0.133626
0.132577
0.131544
0.130525
0.129521
0.12853
0.127553
0.12659
0.125639
0.124701
0.123775
0.122862
0.121959
0.121069
0.120189
0.11932
0.118462
0.117614
0.116776
0.115948
0.115129
0.11432
0.11352
0.112729
0.111946
0.111172
0.110406
0.109648
0.108898
0.108156
0.107422
0.106694
0.105974
0.105261
0.104555
0.103855
0.103162
0.102475
0.101795
0.10112
0.100452
0.0997892
0.0991321
0.0984806
0.0978345
0.0971936
0.0965578
0.0959271
0.0953012
0.0946802
0.0940637
0.0934518
0.0928444
0.0922412
0.0916423
0.0910474
0.0904566
0.0898696
0.0892864
0.0887069
0.088131
0.0875586
0.0869895
0.0864238
0.0858612
0.0853018
0.0847454
0.0841919
0.0836412
0.0830933
0.0825481
0.0820054
0.0814652
0.0809275
0.080392
0.0798589
0.0793278
0.0787989
0.078272
0.077747
0.0772238
0.0767025
0.0761828
0.0756648
0.0751483
0.0746334
0.0741198
0.0736076
0.0730967
0.072587
0.0720784
0.0715709
0.0710644
0.0705589
0.0700543
0.0695505
0.0690475
0.0685453
0.0680436
0.0675426
0.0670421
0.0665421
0.0660425
0.0655434
0.0650446
0.064546
0.0640477
0.0635496
0.0630516
0.0625538
0.062056
0.0615582
0.0610604
0.0605625
0.0600645
0.0595664
0.0590681
0.0585696
0.0580708
0.0575718
0.0570724
0.0565726
0.0560725
0.0555719
0.0550709
0.0545693
0.0540672
0.0535646
0.0530612
0.0525572
0.0520525
0.0515469
0.0510405
0.0505331
0.0500246
0.049515
0.049004
0.0484915
0.0479774
0.0474612
0.0469428
0.0464217
0.0458975
0.0453693
0.0448365
0.0442978
0.0437519
0.0431972
0.042632
0.0420544
0.273506
0.270519
0.267536
0.264559
0.261592
0.258638
0.255698
0.252774
0.249871
0.246988
0.24413
0.241297
0.238492
0.235715
0.23297
0.230257
0.227577
0.224932
0.222322
0.219749
0.217213
0.214715
0.212256
0.209835
0.207454
0.205112
0.202809
0.200545
0.198321
0.196136
0.19399
0.191883
0.189814
0.187783
0.185789
0.183832
0.181912
0.180027
0.178178
0.176363
0.174582
0.172834
0.171119
0.169435
0.167783
0.166162
0.16457
0.163008
0.161473
0.159967
0.158487
0.157034
0.155607
0.154205
0.152827
0.151473
0.150142
0.148834
0.147547
0.146282
0.145038
0.143814
0.14261
0.141425
0.140258
0.13911
0.13798
0.136867
0.135771
0.134691
0.133627
0.132578
0.131545
0.130526
0.129521
0.128531
0.127554
0.126591
0.12564
0.124702
0.123776
0.122862
0.12196
0.12107
0.12019
0.119321
0.118463
0.117615
0.116777
0.115949
0.11513
0.114321
0.113521
0.112729
0.111947
0.111173
0.110407
0.109649
0.108899
0.108157
0.107422
0.106695
0.105975
0.105262
0.104555
0.103856
0.103163
0.102476
0.101795
0.101121
0.100452
0.0997897
0.0991326
0.0984811
0.0978349
0.097194
0.0965582
0.0959275
0.0953016
0.0946805
0.094064
0.0934521
0.0928446
0.0922414
0.0916424
0.0910475
0.0904566
0.0898696
0.0892864
0.0887068
0.0881309
0.0875584
0.0869893
0.0864235
0.0858609
0.0853013
0.0847449
0.0841913
0.0836406
0.0830926
0.0825472
0.0820045
0.0814642
0.0809264
0.0803908
0.0798575
0.0793264
0.0787974
0.0782703
0.0777452
0.0772219
0.0767004
0.0761806
0.0756624
0.0751458
0.0746307
0.074117
0.0736046
0.0730934
0.0725835
0.0720748
0.0715671
0.0710604
0.0705546
0.0700498
0.0695457
0.0690425
0.0685399
0.068038
0.0675366
0.0670358
0.0665355
0.0660356
0.065536
0.0650368
0.0645379
0.0640391
0.0635406
0.0630422
0.0625438
0.0620455
0.0615472
0.0610489
0.0605504
0.0600518
0.0595531
0.0590542
0.058555
0.0580555
0.0575557
0.0570556
0.0565551
0.0560541
0.0555527
0.0550508
0.0545484
0.0540454
0.0535418
0.0530376
0.0525326
0.0520269
0.0515204
0.051013
0.0505047
0.0499953
0.0494849
0.0489731
0.04846
0.0479453
0.0474289
0.0469105
0.0463898
0.0458665
0.04534
0.0448101
0.0442761
0.0437375
0.0431941
0.0426458
0.0420918
0.273506
0.270519
0.267536
0.264559
0.261593
0.258638
0.255698
0.252775
0.249871
0.246989
0.24413
0.241297
0.238492
0.235716
0.23297
0.230257
0.227577
0.224932
0.222322
0.219749
0.217214
0.214716
0.212256
0.209836
0.207454
0.205112
0.202809
0.200546
0.198322
0.196137
0.193991
0.191884
0.189815
0.187783
0.18579
0.183833
0.181912
0.180028
0.178178
0.176363
0.174582
0.172834
0.171119
0.169436
0.167784
0.166163
0.164571
0.163008
0.161474
0.159968
0.158488
0.157035
0.155608
0.154206
0.152828
0.151474
0.150143
0.148834
0.147548
0.146283
0.145039
0.143815
0.142611
0.141426
0.140259
0.139111
0.137981
0.136868
0.135771
0.134691
0.133627
0.132579
0.131545
0.130527
0.129522
0.128532
0.127555
0.126591
0.125641
0.124703
0.123777
0.122863
0.121961
0.12107
0.120191
0.119322
0.118463
0.117615
0.116778
0.115949
0.115131
0.114321
0.113521
0.11273
0.111947
0.111173
0.110408
0.10965
0.1089
0.108158
0.107423
0.106696
0.105976
0.105262
0.104556
0.103856
0.103163
0.102477
0.101796
0.101122
0.100453
0.0997902
0.0991331
0.0984816
0.0978354
0.0971944
0.0965586
0.0959279
0.095302
0.0946808
0.0940643
0.0934524
0.0928448
0.0922416
0.0916426
0.0910477
0.0904567
0.0898697
0.0892864
0.0887068
0.0881308
0.0875583
0.0869891
0.0864232
0.0858606
0.085301
0.0847445
0.0841908
0.08364
0.083092
0.0825466
0.0820037
0.0814634
0.0809255
0.0803898
0.0798564
0.0793252
0.0787961
0.0782689
0.0777437
0.0772203
0.0766987
0.0761787
0.0756604
0.0751437
0.0746284
0.0741145
0.073602
0.0730907
0.0725806
0.0720717
0.0715638
0.0710569
0.0705509
0.0700459
0.0695416
0.0690381
0.0685353
0.0680331
0.0675315
0.0670304
0.0665298
0.0660296
0.0655297
0.0650302
0.0645309
0.0640318
0.0635329
0.0630341
0.0625353
0.0620366
0.0615378
0.061039
0.0605401
0.060041
0.0595418
0.0590423
0.0585426
0.0580425
0.0575422
0.0570414
0.0565403
0.0560387
0.0555367
0.0550341
0.054531
0.0540274
0.0535231
0.0530182
0.0525126
0.0520062
0.0514991
0.0509912
0.0504824
0.0499726
0.0494618
0.0489499
0.0484367
0.0479223
0.0474064
0.0468889
0.0463696
0.0458483
0.0453249
0.0447992
0.044271
0.0437403
0.0432073
0.0426717
0.0421319
0.273506
0.270519
0.267536
0.264559
0.261593
0.258638
0.255698
0.252775
0.249871
0.246989
0.24413
0.241297
0.238492
0.235716
0.23297
0.230257
0.227577
0.224932
0.222323
0.21975
0.217214
0.214716
0.212257
0.209836
0.207455
0.205113
0.20281
0.200546
0.198322
0.196137
0.193991
0.191884
0.189815
0.187784
0.18579
0.183833
0.181913
0.180028
0.178179
0.176364
0.174583
0.172835
0.17112
0.169437
0.167785
0.166163
0.164571
0.163009
0.161475
0.159968
0.158489
0.157036
0.155609
0.154206
0.152828
0.151474
0.150143
0.148835
0.147549
0.146284
0.145039
0.143816
0.142611
0.141426
0.14026
0.139112
0.137982
0.136868
0.135772
0.134692
0.133628
0.13258
0.131546
0.130527
0.129523
0.128533
0.127556
0.126592
0.125642
0.124704
0.123778
0.122864
0.121962
0.121071
0.120191
0.119323
0.118464
0.117616
0.116778
0.11595
0.115132
0.114322
0.113522
0.112731
0.111948
0.111174
0.110408
0.10965
0.108901
0.108158
0.107424
0.106696
0.105976
0.105263
0.104557
0.103857
0.103164
0.102477
0.101797
0.101122
0.100454
0.0997908
0.0991337
0.0984821
0.0978359
0.0971949
0.0965591
0.0959283
0.0953024
0.0946812
0.0940647
0.0934527
0.0928451
0.0922419
0.0916428
0.0910479
0.0904569
0.0898698
0.0892865
0.0887069
0.0881308
0.0875582
0.086989
0.0864231
0.0858604
0.0853008
0.0847442
0.0841905
0.0836396
0.0830915
0.0825461
0.0820032
0.0814628
0.0809247
0.080389
0.0798556
0.0793243
0.078795
0.0782678
0.0777424
0.077219
0.0766972
0.0761772
0.0756588
0.0751419
0.0746265
0.0741125
0.0735998
0.0730884
0.0725782
0.0720691
0.071561
0.071054
0.0705478
0.0700426
0.0695381
0.0690344
0.0685314
0.068029
0.0675272
0.0670259
0.066525
0.0660245
0.0655244
0.0650246
0.064525
0.0640257
0.0635264
0.0630273
0.0625282
0.0620292
0.0615301
0.0610309
0.0605316
0.0600321
0.0595325
0.0590326
0.0585324
0.0580319
0.0575311
0.0570299
0.0565283
0.0560263
0.0555237
0.0550207
0.0545172
0.054013
0.0535083
0.053003
0.052497
0.0519903
0.0514829
0.0509747
0.0504657
0.0499559
0.0494452
0.0489336
0.0484209
0.0479072
0.0473924
0.0468764
0.0463592
0.0458407
0.0453208
0.0447997
0.0442774
0.0437539
0.0432292
0.0427028
0.0421727
0.273506
0.270519
0.267536
0.264559
0.261593
0.258638
0.255698
0.252775
0.249871
0.246989
0.24413
0.241298
0.238492
0.235716
0.232971
0.230257
0.227578
0.224933
0.222323
0.21975
0.217214
0.214717
0.212257
0.209837
0.207455
0.205113
0.20281
0.200547
0.198323
0.196138
0.193992
0.191885
0.189816
0.187784
0.185791
0.183834
0.181913
0.180029
0.178179
0.176364
0.174583
0.172836
0.171121
0.169437
0.167785
0.166164
0.164572
0.16301
0.161475
0.159969
0.15849
0.157037
0.155609
0.154207
0.152829
0.151475
0.150144
0.148836
0.147549
0.146284
0.14504
0.143816
0.142612
0.141427
0.140261
0.139113
0.137982
0.136869
0.135773
0.134693
0.133629
0.13258
0.131547
0.130528
0.129524
0.128533
0.127557
0.126593
0.125642
0.124704
0.123779
0.122865
0.121963
0.121072
0.120192
0.119323
0.118465
0.117617
0.116779
0.115951
0.115132
0.114323
0.113523
0.112732
0.111949
0.111175
0.110409
0.109651
0.108901
0.108159
0.107424
0.106697
0.105977
0.105264
0.104557
0.103858
0.103165
0.102478
0.101797
0.101123
0.100454
0.0997913
0.0991342
0.0984826
0.0978364
0.0971954
0.0965596
0.0959287
0.0953028
0.0946816
0.0940651
0.0934531
0.0928455
0.0922422
0.0916431
0.0910481
0.0904571
0.08987
0.0892867
0.088707
0.0881309
0.0875583
0.0869891
0.0864231
0.0858604
0.0853007
0.084744
0.0841903
0.0836394
0.0830912
0.0825457
0.0820028
0.0814623
0.0809242
0.0803884
0.0798549
0.0793235
0.0787942
0.0782669
0.0777415
0.0772179
0.0766961
0.076176
0.0756575
0.0751405
0.074625
0.0741109
0.0735981
0.0730866
0.0725762
0.072067
0.0715588
0.0710516
0.0705454
0.07004
0.0695354
0.0690315
0.0685283
0.0680257
0.0675237
0.0670222
0.0665212
0.0660205
0.0655202
0.0650202
0.0645204
0.0640208
0.0635213
0.0630219
0.0625226
0.0620232
0.0615239
0.0610244
0.0605248
0.060025
0.0595251
0.0590249
0.0585244
0.0580236
0.0575225
0.057021
0.056519
0.0560167
0.0555138
0.0550105
0.0545067
0.0540023
0.0534973
0.0529918
0.0524856
0.0519788
0.0514714
0.0509633
0.0504544
0.0499449
0.0494346
0.0489236
0.0484119
0.0478993
0.047386
0.046872
0.0463571
0.0458416
0.0453255
0.0448089
0.0442918
0.0437744
0.0432564
0.042737
0.0422142
0.273506
0.270519
0.267536
0.26456
0.261593
0.258638
0.255698
0.252775
0.249871
0.246989
0.244131
0.241298
0.238492
0.235716
0.232971
0.230258
0.227578
0.224933
0.222323
0.21975
0.217215
0.214717
0.212257
0.209837
0.207455
0.205113
0.202811
0.200547
0.198323
0.196138
0.193992
0.191885
0.189816
0.187785
0.185791
0.183834
0.181914
0.180029
0.17818
0.176365
0.174584
0.172836
0.171121
0.169438
0.167786
0.166164
0.164573
0.16301
0.161476
0.15997
0.15849
0.157037
0.15561
0.154208
0.15283
0.151476
0.150145
0.148836
0.14755
0.146285
0.145041
0.143817
0.142613
0.141428
0.140261
0.139113
0.137983
0.13687
0.135774
0.134694
0.13363
0.132581
0.131548
0.130529
0.129525
0.128534
0.127557
0.126594
0.125643
0.124705
0.123779
0.122865
0.121963
0.121073
0.120193
0.119324
0.118466
0.117618
0.11678
0.115952
0.115133
0.114324
0.113524
0.112732
0.11195
0.111176
0.11041
0.109652
0.108902
0.10816
0.107425
0.106698
0.105978
0.105264
0.104558
0.103858
0.103165
0.102478
0.101798
0.101123
0.100455
0.0997919
0.0991348
0.0984832
0.0978369
0.0971959
0.0965601
0.0959292
0.0953033
0.0946821
0.0940655
0.0934535
0.0928459
0.0922426
0.0916435
0.0910485
0.0904574
0.0898703
0.0892869
0.0887072
0.0881311
0.0875584
0.0869892
0.0864232
0.0858604
0.0853007
0.084744
0.0841903
0.0836393
0.0830911
0.0825455
0.0820025
0.081462
0.0809239
0.0803881
0.0798545
0.079323
0.0787937
0.0782663
0.0777408
0.0772172
0.0766953
0.0761751
0.0756565
0.0751395
0.0746239
0.0741097
0.0735968
0.0730852
0.0725747
0.0720654
0.0715572
0.0710499
0.0705435
0.070038
0.0695333
0.0690293
0.068526
0.0680233
0.0675211
0.0670195
0.0665183
0.0660175
0.065517
0.0650168
0.0645168
0.0640171
0.0635174
0.0630178
0.0625183
0.0620188
0.0615192
0.0610196
0.0605198
0.0600198
0.0595196
0.0590192
0.0585185
0.0580176
0.0575162
0.0570145
0.0565124
0.0560098
0.0555068
0.0550034
0.0544994
0.0539949
0.0534899
0.0529844
0.0524783
0.0519716
0.0514644
0.0509565
0.0504481
0.0499392
0.0494296
0.0489195
0.0484089
0.0478978
0.0473863
0.0468743
0.0463621
0.0458496
0.0453371
0.0448246
0.0443123
0.0437999
0.0432873
0.0427735
0.0422568
0.273506
0.270519
0.267536
0.26456
0.261593
0.258638
0.255698
0.252775
0.249871
0.246989
0.244131
0.241298
0.238493
0.235717
0.232971
0.230258
0.227578
0.224933
0.222324
0.219751
0.217215
0.214717
0.212258
0.209837
0.207456
0.205114
0.202811
0.200548
0.198324
0.196139
0.193993
0.191885
0.189816
0.187785
0.185792
0.183835
0.181914
0.18003
0.17818
0.176365
0.174585
0.172837
0.171122
0.169439
0.167787
0.166165
0.164573
0.163011
0.161477
0.15997
0.158491
0.157038
0.155611
0.154208
0.15283
0.151476
0.150146
0.148837
0.147551
0.146286
0.145042
0.143818
0.142613
0.141429
0.140262
0.139114
0.137984
0.136871
0.135774
0.134694
0.13363
0.132582
0.131548
0.13053
0.129525
0.128535
0.127558
0.126595
0.125644
0.124706
0.12378
0.122866
0.121964
0.121073
0.120194
0.119325
0.118466
0.117618
0.11678
0.115952
0.115134
0.114324
0.113524
0.112733
0.11195
0.111176
0.11041
0.109653
0.108903
0.10816
0.107426
0.106698
0.105978
0.105265
0.104559
0.103859
0.103166
0.102479
0.101798
0.101124
0.100455
0.0997925
0.0991354
0.0984837
0.0978375
0.0971965
0.0965606
0.0959297
0.0953038
0.0946826
0.094066
0.0934539
0.0928463
0.092243
0.0916439
0.0910488
0.0904578
0.0898706
0.0892872
0.0887075
0.0881314
0.0875587
0.0869894
0.0864234
0.0858606
0.0853009
0.0847441
0.0841903
0.0836393
0.0830911
0.0825455
0.0820025
0.0814619
0.0809237
0.0803879
0.0798543
0.0793228
0.0787934
0.0782659
0.0777404
0.0772167
0.0766948
0.0761746
0.0756559
0.0751388
0.0746232
0.0741089
0.073596
0.0730843
0.0725738
0.0720644
0.071556
0.0710487
0.0705422
0.0700366
0.0695318
0.0690278
0.0685244
0.0680216
0.0675193
0.0670176
0.0665163
0.0660154
0.0655148
0.0650145
0.0645144
0.0640146
0.0635148
0.0630151
0.0625155
0.0620158
0.0615162
0.0610164
0.0605165
0.0600164
0.0595161
0.0590156
0.0585148
0.0580137
0.0575123
0.0570105
0.0565083
0.0560057
0.0555027
0.0549993
0.0544953
0.0539909
0.0534861
0.0529807
0.0524748
0.0519685
0.0514616
0.0509543
0.0504465
0.0499383
0.0494297
0.0489208
0.0484115
0.047902
0.0473923
0.0468826
0.046373
0.0458635
0.0453544
0.0448456
0.0443373
0.0438293
0.0433212
0.0428121
0.0423008
0.273506
0.270519
0.267536
0.26456
0.261593
0.258638
0.255698
0.252775
0.249872
0.246989
0.244131
0.241298
0.238493
0.235717
0.232971
0.230258
0.227578
0.224933
0.222324
0.219751
0.217215
0.214718
0.212258
0.209838
0.207456
0.205114
0.202811
0.200548
0.198324
0.196139
0.193993
0.191886
0.189817
0.187786
0.185792
0.183835
0.181915
0.18003
0.178181
0.176366
0.174585
0.172837
0.171122
0.169439
0.167787
0.166166
0.164574
0.163011
0.161477
0.159971
0.158491
0.157038
0.155611
0.154209
0.152831
0.151477
0.150146
0.148838
0.147551
0.146286
0.145042
0.143818
0.142614
0.141429
0.140263
0.139115
0.137984
0.136871
0.135775
0.134695
0.133631
0.132583
0.131549
0.13053
0.129526
0.128536
0.127559
0.126595
0.125645
0.124707
0.123781
0.122867
0.121965
0.121074
0.120194
0.119326
0.118467
0.117619
0.116781
0.115953
0.115134
0.114325
0.113525
0.112734
0.111951
0.111177
0.110411
0.109653
0.108903
0.108161
0.107426
0.106699
0.105979
0.105266
0.104559
0.10386
0.103166
0.10248
0.101799
0.101125
0.100456
0.0997931
0.099136
0.0984843
0.0978381
0.097197
0.0965612
0.0959303
0.0953043
0.0946831
0.0940665
0.0934544
0.0928468
0.0922435
0.0916443
0.0910493
0.0904582
0.089871
0.0892876
0.0887079
0.0881317
0.087559
0.0869897
0.0864237
0.0858609
0.0853011
0.0847444
0.0841905
0.0836395
0.0830913
0.0825456
0.0820026
0.081462
0.0809238
0.0803879
0.0798543
0.0793228
0.0787933
0.0782659
0.0777403
0.0772166
0.0766946
0.0761743
0.0756557
0.0751385
0.0746228
0.0741085
0.0735956
0.0730838
0.0725733
0.0720639
0.0715555
0.0710481
0.0705416
0.0700359
0.0695311
0.069027
0.0685235
0.0680207
0.0675184
0.0670166
0.0665153
0.0660143
0.0655137
0.0650133
0.0645132
0.0640132
0.0635134
0.0630137
0.062514
0.0620143
0.0615146
0.0610148
0.0605148
0.0600147
0.0595144
0.0590139
0.0585131
0.058012
0.0575106
0.0570089
0.0565068
0.0560043
0.0555014
0.054998
0.0544943
0.0539901
0.0534855
0.0529805
0.052475
0.0519691
0.0514629
0.0509562
0.0504493
0.049942
0.0494345
0.0489268
0.048419
0.0479113
0.0474036
0.0468961
0.046389
0.0458824
0.0453764
0.044871
0.0443664
0.0438621
0.043358
0.0428531
0.0423466
0.273506
0.270519
0.267536
0.26456
0.261593
0.258638
0.255698
0.252775
0.249872
0.24699
0.244131
0.241298
0.238493
0.235717
0.232972
0.230258
0.227579
0.224934
0.222324
0.219751
0.217216
0.214718
0.212259
0.209838
0.207457
0.205114
0.202812
0.200548
0.198324
0.19614
0.193994
0.191886
0.189817
0.187786
0.185793
0.183836
0.181915
0.180031
0.178181
0.176367
0.174586
0.172838
0.171123
0.16944
0.167788
0.166166
0.164575
0.163012
0.161478
0.159971
0.158492
0.157039
0.155612
0.15421
0.152832
0.151478
0.150147
0.148839
0.147552
0.146287
0.145043
0.143819
0.142615
0.14143
0.140264
0.139116
0.137985
0.136872
0.135776
0.134696
0.133632
0.132583
0.13155
0.130531
0.129527
0.128536
0.12756
0.126596
0.125645
0.124707
0.123782
0.122868
0.121966
0.121075
0.120195
0.119326
0.118468
0.11762
0.116782
0.115954
0.115135
0.114326
0.113526
0.112734
0.111952
0.111178
0.110412
0.109654
0.108904
0.108162
0.107427
0.1067
0.10598
0.105266
0.10456
0.10386
0.103167
0.10248
0.1018
0.101125
0.100457
0.0997937
0.0991366
0.0984849
0.0978387
0.0971976
0.0965618
0.0959309
0.0953049
0.0946836
0.094067
0.093455
0.0928473
0.092244
0.0916448
0.0910498
0.0904587
0.0898715
0.0892881
0.0887083
0.0881322
0.0875595
0.0869901
0.0864241
0.0858612
0.0853015
0.0847447
0.0841909
0.0836399
0.0830916
0.0825459
0.0820029
0.0814623
0.0809241
0.0803882
0.0798545
0.079323
0.0787935
0.078266
0.0777405
0.0772167
0.0766948
0.0761745
0.0756558
0.0751386
0.0746229
0.0741086
0.0735956
0.0730839
0.0725733
0.0720639
0.0715555
0.071048
0.0705415
0.0700359
0.069531
0.0690269
0.0685234
0.0680206
0.0675183
0.0670165
0.0665151
0.0660142
0.0655135
0.0650132
0.0645131
0.0640131
0.0635133
0.0630136
0.0625139
0.0620143
0.0615146
0.0610148
0.0605149
0.0600148
0.0595146
0.0590141
0.0585134
0.0580125
0.0575112
0.0570096
0.0565076
0.0560053
0.0555027
0.0549996
0.0544962
0.0539924
0.0534882
0.0529836
0.0524787
0.0519735
0.0514679
0.0509621
0.0504561
0.0499499
0.0494436
0.0489373
0.0484312
0.0479252
0.0474195
0.0469143
0.0464096
0.0459057
0.0454026
0.0449003
0.0443989
0.0438981
0.0433975
0.0428966
0.0423945
0.273506
0.270519
0.267536
0.26456
0.261593
0.258638
0.255698
0.252775
0.249872
0.24699
0.244131
0.241299
0.238493
0.235717
0.232972
0.230259
0.227579
0.224934
0.222324
0.219752
0.217216
0.214718
0.212259
0.209838
0.207457
0.205115
0.202812
0.200549
0.198325
0.19614
0.193994
0.191887
0.189818
0.187787
0.185793
0.183836
0.181916
0.180031
0.178182
0.176367
0.174586
0.172839
0.171123
0.16944
0.167788
0.166167
0.164575
0.163013
0.161479
0.159972
0.158493
0.15704
0.155612
0.15421
0.152832
0.151478
0.150148
0.148839
0.147553
0.146288
0.145044
0.14382
0.142616
0.141431
0.140264
0.139116
0.137986
0.136873
0.135776
0.134697
0.133632
0.132584
0.131551
0.130532
0.129527
0.128537
0.12756
0.126597
0.125646
0.124708
0.123782
0.122868
0.121966
0.121076
0.120196
0.119327
0.118469
0.117621
0.116783
0.115954
0.115136
0.114327
0.113526
0.112735
0.111952
0.111178
0.110412
0.109655
0.108905
0.108163
0.107428
0.1067
0.10598
0.105267
0.104561
0.103861
0.103168
0.102481
0.1018
0.101126
0.100457
0.0997944
0.0991372
0.0984856
0.0978393
0.0971983
0.0965624
0.0959315
0.0953055
0.0946842
0.0940676
0.0934556
0.0928479
0.0922446
0.0916454
0.0910503
0.0904593
0.0898721
0.0892886
0.0887089
0.0881327
0.08756
0.0869906
0.0864246
0.0858617
0.085302
0.0847452
0.0841914
0.0836403
0.0830921
0.0825464
0.0820033
0.0814627
0.0809245
0.0803886
0.0798549
0.0793234
0.078794
0.0782665
0.0777409
0.0772172
0.0766952
0.0761749
0.0756562
0.0751391
0.0746234
0.0741091
0.0735961
0.0730844
0.0725738
0.0720644
0.071556
0.0710486
0.0705421
0.0700364
0.0695316
0.0690275
0.0685241
0.0680213
0.067519
0.0670172
0.0665159
0.066015
0.0655144
0.0650141
0.064514
0.0640141
0.0635144
0.0630148
0.0625152
0.0620156
0.061516
0.0610163
0.0605166
0.0600166
0.0595166
0.0590163
0.0585157
0.058015
0.0575139
0.0570126
0.0565109
0.0560089
0.0555066
0.0550039
0.0545009
0.0539976
0.0534939
0.05299
0.0524857
0.0519812
0.0514765
0.0509717
0.0504667
0.0499617
0.0494568
0.048952
0.0484475
0.0479433
0.0474396
0.0469366
0.0464343
0.0459329
0.0454325
0.0449331
0.0444347
0.043937
0.0434398
0.0429427
0.0424449
0.273506
0.270519
0.267536
0.26456
0.261593
0.258639
0.255699
0.252776
0.249872
0.24699
0.244131
0.241299
0.238493
0.235717
0.232972
0.230259
0.227579
0.224934
0.222325
0.219752
0.217216
0.214718
0.212259
0.209839
0.207457
0.205115
0.202813
0.200549
0.198325
0.19614
0.193995
0.191887
0.189818
0.187787
0.185794
0.183837
0.181916
0.180032
0.178182
0.176368
0.174587
0.172839
0.171124
0.169441
0.167789
0.166167
0.164576
0.163013
0.161479
0.159973
0.158493
0.15704
0.155613
0.154211
0.152833
0.151479
0.150148
0.14884
0.147553
0.146288
0.145044
0.14382
0.142616
0.141431
0.140265
0.139117
0.137987
0.136873
0.135777
0.134697
0.133633
0.132585
0.131551
0.130533
0.129528
0.128538
0.127561
0.126597
0.125647
0.124709
0.123783
0.122869
0.121967
0.121076
0.120197
0.119328
0.118469
0.117621
0.116783
0.115955
0.115137
0.114327
0.113527
0.112736
0.111953
0.111179
0.110413
0.109655
0.108905
0.108163
0.107428
0.106701
0.105981
0.105268
0.104561
0.103862
0.103168
0.102482
0.101801
0.101126
0.100458
0.099795
0.0991379
0.0984862
0.0978399
0.0971989
0.096563
0.0959321
0.0953061
0.0946849
0.0940683
0.0934562
0.0928485
0.0922452
0.091646
0.091051
0.0904599
0.0898727
0.0892892
0.0887095
0.0881333
0.0875606
0.0869913
0.0864252
0.0858624
0.0853026
0.0847458
0.084192
0.083641
0.0830927
0.0825471
0.082004
0.0814634
0.0809252
0.0803893
0.0798556
0.0793241
0.0787947
0.0782672
0.0777416
0.0772179
0.076696
0.0761757
0.075657
0.0751399
0.0746242
0.07411
0.073597
0.0730853
0.0725748
0.0720654
0.071557
0.0710497
0.0705432
0.0700376
0.0695329
0.0690288
0.0685254
0.0680227
0.0675205
0.0670188
0.0665176
0.0660167
0.0655162
0.065016
0.0645161
0.0640163
0.0635167
0.0630172
0.0625178
0.0620183
0.0615189
0.0610194
0.0605198
0.0600201
0.0595203
0.0590202
0.05852
0.0580195
0.0575187
0.0570177
0.0565164
0.0560149
0.055513
0.0550108
0.0545084
0.0540056
0.0535026
0.0529994
0.0524959
0.0519923
0.0514886
0.0509848
0.050481
0.0499773
0.0494738
0.0489705
0.0484677
0.0479653
0.0474637
0.0469628
0.0464628
0.0459639
0.045466
0.0449693
0.0444737
0.0439791
0.0434851
0.0429916
0.042498
0.273506
0.270519
0.267536
0.26456
0.261593
0.258639
0.255699
0.252776
0.249872
0.24699
0.244132
0.241299
0.238494
0.235718
0.232972
0.230259
0.227579
0.224934
0.222325
0.219752
0.217217
0.214719
0.212259
0.209839
0.207458
0.205116
0.202813
0.20055
0.198326
0.196141
0.193995
0.191888
0.189819
0.187788
0.185794
0.183837
0.181917
0.180032
0.178183
0.176368
0.174587
0.17284
0.171125
0.169441
0.167789
0.166168
0.164576
0.163014
0.16148
0.159973
0.158494
0.157041
0.155614
0.154212
0.152834
0.15148
0.150149
0.14884
0.147554
0.146289
0.145045
0.143821
0.142617
0.141432
0.140266
0.139118
0.137987
0.136874
0.135778
0.134698
0.133634
0.132585
0.131552
0.130533
0.129529
0.128538
0.127562
0.126598
0.125647
0.124709
0.123784
0.12287
0.121968
0.121077
0.120197
0.119328
0.11847
0.117622
0.116784
0.115956
0.115137
0.114328
0.113528
0.112736
0.111954
0.11118
0.110414
0.109656
0.108906
0.108164
0.107429
0.106702
0.105982
0.105268
0.104562
0.103862
0.103169
0.102482
0.101802
0.101127
0.100459
0.0997957
0.0991385
0.0984869
0.0978406
0.0971996
0.0965637
0.0959328
0.0953068
0.0946855
0.0940689
0.0934568
0.0928492
0.0922458
0.0916467
0.0910516
0.0904605
0.0898733
0.0892899
0.0887102
0.088134
0.0875613
0.086992
0.0864259
0.0858631
0.0853033
0.0847466
0.0841927
0.0836417
0.0830935
0.0825478
0.0820048
0.0814642
0.080926
0.0803902
0.0798565
0.079325
0.0787956
0.0782682
0.0777427
0.077219
0.076697
0.0761768
0.0756582
0.0751411
0.0746255
0.0741112
0.0735983
0.0730867
0.0725762
0.0720669
0.0715586
0.0710513
0.070545
0.0700395
0.0695348
0.0690308
0.0685275
0.0680249
0.0675228
0.0670212
0.0665201
0.0660194
0.0655191
0.065019
0.0645192
0.0640196
0.0635202
0.0630209
0.0625216
0.0620224
0.0615232
0.061024
0.0605247
0.0600253
0.0595257
0.059026
0.0585261
0.058026
0.0575256
0.0570251
0.0565242
0.0560232
0.0555218
0.0550203
0.0545184
0.0540164
0.0535142
0.0530117
0.0525092
0.0520065
0.0515039
0.0510012
0.0504987
0.0499963
0.0494943
0.0489926
0.0484915
0.047991
0.0474913
0.0469926
0.0464948
0.0459983
0.0455029
0.0450089
0.044516
0.0440243
0.0435335
0.0430435
0.0425541
0.273506
0.270519
0.267536
0.26456
0.261593
0.258639
0.255699
0.252776
0.249872
0.24699
0.244132
0.241299
0.238494
0.235718
0.232972
0.230259
0.22758
0.224935
0.222325
0.219752
0.217217
0.214719
0.21226
0.209839
0.207458
0.205116
0.202813
0.20055
0.198326
0.196141
0.193995
0.191888
0.189819
0.187788
0.185794
0.183838
0.181917
0.180033
0.178183
0.176369
0.174588
0.17284
0.171125
0.169442
0.16779
0.166169
0.164577
0.163014
0.16148
0.159974
0.158495
0.157042
0.155614
0.154212
0.152834
0.15148
0.150149
0.148841
0.147555
0.14629
0.145046
0.143822
0.142618
0.141433
0.140266
0.139118
0.137988
0.136875
0.135779
0.134699
0.133635
0.132586
0.131553
0.130534
0.12953
0.128539
0.127562
0.126599
0.125648
0.12471
0.123784
0.122871
0.121968
0.121078
0.120198
0.119329
0.118471
0.117623
0.116785
0.115957
0.115138
0.114329
0.113528
0.112737
0.111955
0.11118
0.110415
0.109657
0.108907
0.108165
0.10743
0.106702
0.105982
0.105269
0.104563
0.103863
0.10317
0.102483
0.101802
0.101128
0.100459
0.0997964
0.0991392
0.0984876
0.0978413
0.0972003
0.0965644
0.0959335
0.0953075
0.0946862
0.0940696
0.0934576
0.0928499
0.0922466
0.0916474
0.0910524
0.0904613
0.0898741
0.0892907
0.0887109
0.0881348
0.0875621
0.0869928
0.0864267
0.0858639
0.0853042
0.0847475
0.0841936
0.0836427
0.0830944
0.0825488
0.0820058
0.0814652
0.0809271
0.0803912
0.0798576
0.0793262
0.0787968
0.0782694
0.0777439
0.0772203
0.0766984
0.0761782
0.0756597
0.0751427
0.0746271
0.0741129
0.0736001
0.0730885
0.0725782
0.0720689
0.0715607
0.0710535
0.0705473
0.0700419
0.0695373
0.0690335
0.0685303
0.0680278
0.0675259
0.0670245
0.0665235
0.066023
0.0655228
0.065023
0.0645234
0.064024
0.0635248
0.0630258
0.0625268
0.0620279
0.061529
0.06103
0.060531
0.060032
0.0595328
0.0590335
0.058534
0.0580343
0.0575345
0.0570344
0.0565342
0.0560337
0.055533
0.0550321
0.0545311
0.0540298
0.0535284
0.0530269
0.0525254
0.0520238
0.0515222
0.0510208
0.0505196
0.0500187
0.0495182
0.0490182
0.0485188
0.0480202
0.0475225
0.0470258
0.0465303
0.0460361
0.0455432
0.0450516
0.0445615
0.0440727
0.0435851
0.0430987
0.0426132
0.273506
0.270519
0.267536
0.26456
0.261593
0.258639
0.255699
0.252776
0.249872
0.24699
0.244132
0.241299
0.238494
0.235718
0.232973
0.23026
0.22758
0.224935
0.222326
0.219753
0.217217
0.214719
0.21226
0.20984
0.207458
0.205116
0.202814
0.20055
0.198326
0.196142
0.193996
0.191889
0.18982
0.187789
0.185795
0.183838
0.181918
0.180033
0.178184
0.176369
0.174588
0.172841